data_JUC-596_hea_net_exp

_audit_creation_method RASPA-1.0
_audit_creation_date 2022-6-20
_audit_author_name ''

_citation_author_name        'Chengyang Yu, Hui Li, Yujie Wang, et al.,''
_citation_title              'Three-Dimensional Triptycene-Functionalized Covalent Organic Frameworks with hea Net for Hydrogen Adsorption'
_citation_journal_abbrev     'Angew. Chem. Int.'
_citation_journal_volume     0000
_citation_page_first         e202117101
_citation_page_last          e202117106
_citation_year               2022

_cell_length_a    54.1841
_cell_length_b    54.1841
_cell_length_c    49.0914
_cell_angle_alpha 90
_cell_angle_beta  90
_cell_angle_gamma 120
_cell_volume      124819

_symmetry_cell_setting          trigonal
_symmetry_space_group_name_Hall 'P 1'
_symmetry_space_group_name_H-M  'P 1'
_symmetry_Int_Tables_number     1

_symmetry_equiv_pos_as_xyz 'x,y,z'

loop_
_atom_site_label
_atom_site_type_symbol
_atom_site_fract_x
_atom_site_fract_y
_atom_site_fract_z
_atom_site_charge
C1       C      0.330860000000     0.639760000000     0.387780000000     0.0167351  
C2       C      0.328720000000     0.616410000000     0.373680000000    -0.0568615  
C3       C      0.326670000000     0.593130000000     0.388420000000    -0.000540612
C4       C      0.345780000000     0.570370000000     0.357240000000    -0.0432507  
C5       C      0.323460000000     0.568070000000     0.373490000000     0.0135628  
C6       C      0.299350000000     0.541240000000     0.377850000000    -0.0383144  
C7       C      0.298330000000     0.516760000000     0.367490000000    -0.0371034  
C8       C      0.321520000000     0.518790000000     0.352900000000     0.00920881 
C9       C      0.344940000000     0.545850000000     0.347160000000    -0.0309495  
C10      C      0.321980000000     0.492520000000     0.346210000000     0.0263522  
C11      C      0.375520000000     0.474510000000     0.324350000000    -0.222291   
C12      C      0.350230000000     0.469840000000     0.336620000000     0.158711   
C13      C      0.331490000000     0.442830000000     0.347710000000    -0.130832   
C14      C      0.338130000000     0.421060000000     0.346450000000     0.0583114  
C15      C      0.363590000000     0.425820000000     0.334290000000    -0.151407   
C16      C      0.382220000000     0.452750000000     0.323040000000     0.380203   
C17      C      0.385070000000     0.359120000000     0.333640000000     0.00916744 
C18      C      0.356890000000     0.424910000000     0.626180000000    -0.0232546  
C19      C      0.332550000000     0.407280000000     0.642020000000     0.0120108  
C20      C      0.307460000000     0.408320000000     0.636840000000    -0.0200848  
C21      C      0.306020000000     0.424440000000     0.615420000000    -0.0532799  
C22      C      0.329960000000     0.440940000000     0.599090000000     0.104091   
C23      C      0.355430000000     0.441110000000     0.604740000000    -0.0686171  
C24      C      0.315800000000     0.475110000000     0.580020000000     0.382841   
C25      C      0.328390000000     0.458070000000     0.576340000000    -0.148665   
C26      C      0.339220000000     0.457190000000     0.550570000000     0.0590954  
C27      C      0.337380000000     0.472870000000     0.528830000000    -0.129507   
C28      C      0.324800000000     0.489910000000     0.532610000000     0.160838   
C29      C      0.313930000000     0.490670000000     0.558250000000    -0.220891   
C30      C      0.335870000000     0.513370000000     0.488090000000     0.0273745  
C31      C      0.327890000000     0.571110000000     0.433910000000     0.0135491  
C32      C      0.327440000000     0.593810000000     0.417440000000     0.00173184 
C33      C      0.329220000000     0.617290000000     0.431320000000    -0.058752   
C34      C      0.330880000000     0.639950000000     0.416660000000     0.0205029  
C35      C      0.308460000000     0.558330000000     0.455360000000    -0.0416843  
C36      C      0.310480000000     0.538960000000     0.472650000000    -0.0303571  
C37      C      0.332010000000     0.532020000000     0.468760000000     0.0104171  
C38      C      0.349020000000     0.563720000000     0.429640000000    -0.0369971  
C39      C      0.350890000000     0.544140000000     0.446800000000    -0.0369354  
C40      C      0.365230000000     0.374370000000     0.642640000000    -0.0232509  
C41      C      0.387020000000     0.367750000000     0.642360000000    -0.0728129  
C42      C      0.402840000000     0.370800000000     0.666000000000     0.102613   
C43      C      0.396080000000     0.380050000000     0.690040000000    -0.0562634  
C44      C      0.374290000000     0.386670000000     0.690360000000    -0.0245218  
C45      C      0.333330000000     0.389930000000     0.666660000000    -0.026872   
C46      C      0.333330000000     0.666660000000     0.958410000000    -0.0612855  
C47      C      0.333330000000     0.666660000000     0.903990000000    -0.0646973  
N1       N      0.345770000000     0.493680000000     0.339670000000    -0.135034   
N2       N      0.322340000000     0.506600000000     0.511180000000    -0.133976   
F1       F      0.407440000000     0.458440000000     0.311870000000    -0.458915   
F2       F      0.504700000000     0.360710000000     0.271470000000    -0.451142   
H1       H      0.328380000000     0.616190000000     0.351620000000     0.0471541  
H2       H      0.364540000000     0.590970000000     0.353740000000     0.0437443  
H3       H      0.281910000000     0.539190000000     0.390300000000     0.0445472  
H4       H      0.280060000000     0.496140000000     0.372090000000     0.041221   
H5       H      0.363030000000     0.548000000000     0.335770000000     0.0501803  
H6       H      0.302630000000     0.472290000000     0.348970000000     0.0252648  
H7       H      0.390390000000     0.495350000000     0.316240000000     0.125664   
H8       H      0.312180000000     0.438500000000     0.358140000000     0.0661485  
H9       H      0.323420000000     0.400490000000     0.355200000000     0.01704    
H10      H      0.377310000000     0.426790000000     0.630530000000     0.0457065  
H11      H      0.288690000000     0.396240000000     0.649320000000     0.0513395  
H12      H      0.286060000000     0.423840000000     0.611510000000     0.0861033  
H13      H      0.374430000000     0.454310000000     0.592890000000     0.0586521  
H14      H      0.348690000000     0.443950000000     0.547150000000     0.0183253  
H15      H      0.345400000000     0.471130000000     0.509200000000     0.0672021  
H16      H      0.304240000000     0.503750000000     0.561410000000     0.12945    
H17      H      0.351520000000     0.507150000000     0.483450000000     0.0263219  
H18      H      0.329990000000     0.618240000000     0.453370000000     0.0492667  
H19      H      0.292020000000     0.563750000000     0.459000000000     0.0446291  
H20      H      0.295490000000     0.529810000000     0.489320000000     0.0521163  
H21      H      0.364600000000     0.573760000000     0.413570000000     0.0454692  
H22      H      0.367700000000     0.539170000000     0.443450000000     0.0429315  
H23      H      0.353000000000     0.371100000000     0.624200000000     0.0386865  
H24      H      0.391550000000     0.360240000000     0.623600000000     0.0544433  
H25      H      0.407190000000     0.381430000000     0.708830000000     0.0793912  
H26      H      0.368970000000     0.392270000000     0.709750000000     0.0430347  
H27      H      0.333330000000     0.666660000000     0.981050000000     0.0447673  
H28      H      0.333330000000     0.666660000000     0.881340000000     0.0469399  
C1       C      0.360240000000     0.691100000000     0.387780000000     0.0167272  
C2       C      0.383590000000     0.712310000000     0.373680000000    -0.0568578  
C3       C      0.406870000000     0.733540000000     0.388420000000    -0.000541125
C4       C      0.429630000000     0.775410000000     0.357240000000    -0.0432507  
C5       C      0.431930000000     0.755390000000     0.373490000000     0.0135631  
C6       C      0.458760000000     0.758110000000     0.377850000000    -0.0383144  
C7       C      0.483240000000     0.781570000000     0.367490000000    -0.0371033  
C8       C      0.481210000000     0.802730000000     0.352900000000     0.00920898 
C9       C      0.454150000000     0.799090000000     0.347160000000    -0.0309494  
C10      C      0.507480000000     0.829460000000     0.346210000000     0.0263524  
C11      C      0.525490000000     0.901010000000     0.324350000000    -0.22229    
C12      C      0.530160000000     0.880390000000     0.336620000000     0.158711   
C13      C      0.557170000000     0.888660000000     0.347710000000    -0.130831   
C14      C      0.578940000000     0.917070000000     0.346450000000     0.0583104  
C15      C      0.574180000000     0.937770000000     0.334290000000    -0.151404   
C16      C      0.547250000000     0.929470000000     0.323040000000     0.380202   
C17      C      0.640880000000     0.025950000000     0.333640000000     0.00917313 
C18      C      0.575090000000     0.931980000000     0.626180000000    -0.023254   
C19      C      0.592720000000     0.925270000000     0.642020000000     0.0120102  
C20      C      0.591680000000     0.899140000000     0.636840000000    -0.0200844  
C21      C      0.575560000000     0.881580000000     0.615420000000    -0.0532799  
C22      C      0.559060000000     0.889020000000     0.599090000000     0.104091   
C23      C      0.558890000000     0.914320000000     0.604740000000    -0.0686169  
C24      C      0.524890000000     0.840690000000     0.580020000000     0.382841   
C25      C      0.541930000000     0.870320000000     0.576340000000    -0.148665   
C26      C      0.542810000000     0.882030000000     0.550570000000     0.0590957  
C27      C      0.527130000000     0.864510000000     0.528830000000    -0.129507   
C28      C      0.510090000000     0.834890000000     0.532610000000     0.160839   
C29      C      0.509330000000     0.823260000000     0.558250000000    -0.220891   
C30      C      0.486630000000     0.822500000000     0.488090000000     0.0273747  
C31      C      0.428890000000     0.756780000000     0.433910000000     0.0135495  
C32      C      0.406190000000     0.733630000000     0.417440000000     0.00173096 
C33      C      0.382710000000     0.711930000000     0.431320000000    -0.0587476  
C34      C      0.360050000000     0.690930000000     0.416660000000     0.0204936  
C35      C      0.441670000000     0.750130000000     0.455360000000    -0.0416844  
C36      C      0.461040000000     0.771520000000     0.472650000000    -0.030357   
C37      C      0.467980000000     0.799990000000     0.468760000000     0.0104172  
C38      C      0.436280000000     0.785300000000     0.429640000000    -0.0369971  
C39      C      0.455860000000     0.806750000000     0.446800000000    -0.0369352  
C40      C      0.625630000000     0.990860000000     0.642640000000    -0.0232393  
C41      C      0.632250000000     0.019270000000     0.642360000000    -0.0728236  
C42      C      0.629200000000     0.032040000000     0.666000000000     0.102619   
C43      C      0.619950000000     0.016030000000     0.690040000000    -0.0562739  
C44      C      0.613330000000     0.987620000000     0.690360000000    -0.0245103  
C45      C      0.610070000000     0.943400000000     0.666660000000    -0.0268699  
N1       N      0.506320000000     0.852090000000     0.339670000000    -0.135034   
N2       N      0.493400000000     0.815740000000     0.511180000000    -0.133976   
F1       F      0.541560000000     0.949000000000     0.311870000000    -0.458913   
F2       F      0.639290000000     0.143990000000     0.271470000000    -0.451141   
H1       H      0.383810000000     0.712190000000     0.351620000000     0.0471537  
H2       H      0.409030000000     0.773570000000     0.353740000000     0.0437445  
H3       H      0.460810000000     0.742720000000     0.390300000000     0.0445474  
H4       H      0.503860000000     0.783920000000     0.372090000000     0.0412213  
H5       H      0.452000000000     0.815030000000     0.335770000000     0.0501806  
H6       H      0.527710000000     0.830340000000     0.348970000000     0.0252651  
H7       H      0.504650000000     0.895040000000     0.316240000000     0.125665   
H8       H      0.561500000000     0.873680000000     0.358140000000     0.0661488  
H9       H      0.599510000000     0.922930000000     0.355200000000     0.0170412  
H10      H      0.573210000000     0.950520000000     0.630530000000     0.0457074  
H11      H      0.603760000000     0.892450000000     0.649320000000     0.0513395  
H12      H      0.576160000000     0.862220000000     0.611510000000     0.0861036  
H13      H      0.545690000000     0.920120000000     0.592890000000     0.0586531  
H14      H      0.556050000000     0.904740000000     0.547150000000     0.0183262  
H15      H      0.528870000000     0.874270000000     0.509200000000     0.0672027  
H16      H      0.496250000000     0.800490000000     0.561410000000     0.12945    
H17      H      0.492850000000     0.844370000000     0.483450000000     0.0263224  
H18      H      0.381760000000     0.711750000000     0.453370000000     0.0492662  
H19      H      0.436250000000     0.728270000000     0.459000000000     0.0446294  
H20      H      0.470190000000     0.765680000000     0.489320000000     0.0521165  
H21      H      0.426240000000     0.790840000000     0.413570000000     0.0454695  
H22      H      0.460830000000     0.828530000000     0.443450000000     0.0429319  
H23      H      0.628900000000     0.981900000000     0.624200000000     0.0386854  
H24      H      0.639760000000     0.031310000000     0.623600000000     0.0544452  
H25      H      0.618570000000     0.025760000000     0.708830000000     0.0793931  
H26      H      0.607730000000     0.976700000000     0.709750000000     0.0430334  
C1       C      0.308900000000     0.669140000000     0.387780000000     0.016741   
C2       C      0.287690000000     0.671280000000     0.373680000000    -0.0568642  
C3       C      0.266460000000     0.673330000000     0.388420000000    -0.000540121
C4       C      0.224590000000     0.654220000000     0.357240000000    -0.0432506  
C5       C      0.244610000000     0.676540000000     0.373490000000     0.0135627  
C6       C      0.241890000000     0.700650000000     0.377850000000    -0.0383142  
C7       C      0.218430000000     0.701670000000     0.367490000000    -0.0371033  
C8       C      0.197270000000     0.678480000000     0.352900000000     0.00920883 
C9       C      0.200910000000     0.655060000000     0.347160000000    -0.0309496  
C10      C      0.170540000000     0.678020000000     0.346210000000     0.0263522  
C11      C      0.098990000000     0.624480000000     0.324350000000    -0.222293   
C12      C      0.119610000000     0.649770000000     0.336620000000     0.158711   
C13      C      0.111340000000     0.668510000000     0.347710000000    -0.130834   
C14      C      0.082930000000     0.661870000000     0.346450000000     0.0583141  
C15      C      0.062230000000     0.636410000000     0.334290000000    -0.151414   
C16      C      0.070530000000     0.617780000000     0.323040000000     0.380205   
C17      C      0.974050000000     0.614930000000     0.333640000000     0.00915275 
C18      C      0.068020000000     0.643110000000     0.626180000000    -0.0232558  
C19      C      0.074730000000     0.667450000000     0.642020000000     0.0120124  
C20      C      0.100860000000     0.692540000000     0.636840000000    -0.0200856  
C21      C      0.118420000000     0.693980000000     0.615420000000    -0.0532796  
C22      C      0.110980000000     0.670040000000     0.599090000000     0.104091   
C23      C      0.085680000000     0.644570000000     0.604740000000    -0.0686171  
C24      C      0.159310000000     0.684200000000     0.580020000000     0.382841   
C25      C      0.129680000000     0.671610000000     0.576340000000    -0.148665   
C26      C      0.117970000000     0.660780000000     0.550570000000     0.0590952  
C27      C      0.135490000000     0.662620000000     0.528830000000    -0.129508   
C28      C      0.165110000000     0.675200000000     0.532610000000     0.160838   
C29      C      0.176740000000     0.686070000000     0.558250000000    -0.220891   
C30      C      0.177500000000     0.664130000000     0.488090000000     0.0273744  
C31      C      0.243220000000     0.672110000000     0.433910000000     0.0135488  
C32      C      0.266370000000     0.672560000000     0.417440000000     0.00173254 
C33      C      0.288070000000     0.670780000000     0.431320000000    -0.0587552  
C34      C      0.309070000000     0.669120000000     0.416660000000     0.0205098  
C35      C      0.249870000000     0.691540000000     0.455360000000    -0.0416842  
C36      C      0.228480000000     0.689520000000     0.472650000000    -0.0303571  
C37      C      0.200010000000     0.667990000000     0.468760000000     0.010417   
C38      C      0.214700000000     0.650980000000     0.429640000000    -0.0369971  
C39      C      0.193250000000     0.649110000000     0.446800000000    -0.0369355  
C40      C      0.009140000000     0.634770000000     0.642640000000    -0.023278   
C41      C      0.980730000000     0.612980000000     0.642360000000    -0.0727837  
C42      C      0.967960000000     0.597160000000     0.666000000000     0.102598   
C43      C      0.983970000000     0.603920000000     0.690040000000    -0.056234   
C44      C      0.012380000000     0.625710000000     0.690360000000    -0.0245489  
C45      C      0.056600000000     0.666670000000     0.666660000000    -0.0268773  
N1       N      0.147910000000     0.654230000000     0.339670000000    -0.135035   
N2       N      0.184260000000     0.677660000000     0.511180000000    -0.133976   
F1       F      0.051000000000     0.592560000000     0.311870000000    -0.458918   
F2       F      0.856010000000     0.495300000000     0.271470000000    -0.451141   
H1       H      0.287810000000     0.671620000000     0.351620000000     0.0471545  
H2       H      0.226430000000     0.635460000000     0.353740000000     0.043744   
H3       H      0.257280000000     0.718090000000     0.390300000000     0.0445475  
H4       H      0.216080000000     0.719940000000     0.372090000000     0.0412213  
H5       H      0.184970000000     0.636970000000     0.335770000000     0.05018    
H6       H      0.169660000000     0.697370000000     0.348970000000     0.0252649  
H7       H      0.104960000000     0.609610000000     0.316240000000     0.125664   
H8       H      0.126320000000     0.687820000000     0.358140000000     0.0661487  
H9       H      0.077070000000     0.676580000000     0.355200000000     0.0170381  
H10      H      0.049480000000     0.622690000000     0.630530000000     0.0457053  
H11      H      0.107550000000     0.711310000000     0.649320000000     0.05134    
H12      H      0.137780000000     0.713940000000     0.611510000000     0.0861035  
H13      H      0.079880000000     0.625570000000     0.592890000000     0.0586511  
H14      H      0.095260000000     0.651310000000     0.547150000000     0.0183244  
H15      H      0.125730000000     0.654600000000     0.509200000000     0.0672016  
H16      H      0.199510000000     0.695760000000     0.561410000000     0.12945    
H17      H      0.155630000000     0.648480000000     0.483450000000     0.0263215  
H18      H      0.288250000000     0.670010000000     0.453370000000     0.0492671  
H19      H      0.271730000000     0.707980000000     0.459000000000     0.0446294  
H20      H      0.234320000000     0.704510000000     0.489320000000     0.0521166  
H21      H      0.209160000000     0.635400000000     0.413570000000     0.0454689  
H22      H      0.171470000000     0.632300000000     0.443450000000     0.0429311  
H23      H      0.018100000000     0.647000000000     0.624200000000     0.0386909  
H24      H      0.968690000000     0.608450000000     0.623600000000     0.05444    
H25      H      0.974240000000     0.592810000000     0.708830000000     0.0793881  
H26      H      0.023300000000     0.631030000000     0.709750000000     0.0430391  
C1       C      0.639760000000     0.330860000000     0.612220000000     0.0167353  
C2       C      0.616410000000     0.328720000000     0.626320000000    -0.0568615  
C3       C      0.593130000000     0.326670000000     0.611580000000    -0.000540468
C4       C      0.570370000000     0.345780000000     0.642760000000    -0.0432505  
C5       C      0.568070000000     0.323460000000     0.626510000000     0.0135629  
C6       C      0.541240000000     0.299350000000     0.622150000000    -0.0383142  
C7       C      0.516760000000     0.298330000000     0.632510000000    -0.0371033  
C8       C      0.518790000000     0.321520000000     0.647100000000     0.00920906 
C9       C      0.545850000000     0.344940000000     0.652840000000    -0.0309493  
C10      C      0.492520000000     0.321980000000     0.653790000000     0.0263525  
C11      C      0.474510000000     0.375520000000     0.675650000000    -0.222291   
C12      C      0.469840000000     0.350230000000     0.663380000000     0.158711   
C13      C      0.442830000000     0.331490000000     0.652290000000    -0.130832   
C14      C      0.421060000000     0.338130000000     0.653550000000     0.0583115  
C15      C      0.425820000000     0.363590000000     0.665710000000    -0.151407   
C16      C      0.452750000000     0.382220000000     0.676960000000     0.380203   
C17      C      0.359120000000     0.385070000000     0.666360000000     0.00916744 
C18      C      0.424910000000     0.356890000000     0.373820000000    -0.0232546  
C19      C      0.407280000000     0.332550000000     0.357980000000     0.0120108  
C20      C      0.408320000000     0.307460000000     0.363160000000    -0.0200848  
C21      C      0.424440000000     0.306020000000     0.384580000000    -0.0532799  
C22      C      0.440940000000     0.329960000000     0.400910000000     0.104091   
C23      C      0.441110000000     0.355430000000     0.395260000000    -0.0686171  
C24      C      0.475110000000     0.315800000000     0.419980000000     0.382841   
C25      C      0.458070000000     0.328390000000     0.423660000000    -0.148665   
C26      C      0.457190000000     0.339220000000     0.449430000000     0.0590954  
C27      C      0.472870000000     0.337380000000     0.471170000000    -0.129507   
C28      C      0.489910000000     0.324800000000     0.467390000000     0.160839   
C29      C      0.490670000000     0.313930000000     0.441750000000    -0.220891   
C30      C      0.513370000000     0.335870000000     0.511910000000     0.0273745  
C31      C      0.571110000000     0.327890000000     0.566090000000     0.0135491  
C32      C      0.593810000000     0.327440000000     0.582560000000     0.00173184 
C33      C      0.617290000000     0.329220000000     0.568680000000    -0.0587519  
C34      C      0.639950000000     0.330880000000     0.583340000000     0.0205028  
C35      C      0.558330000000     0.308460000000     0.544640000000    -0.0416843  
C36      C      0.538960000000     0.310480000000     0.527350000000    -0.030357   
C37      C      0.532020000000     0.332010000000     0.531240000000     0.0104171  
C38      C      0.563720000000     0.349020000000     0.570360000000    -0.0369971  
C39      C      0.544140000000     0.350890000000     0.553200000000    -0.0369354  
C40      C      0.374370000000     0.365230000000     0.357360000000    -0.023251   
C41      C      0.367750000000     0.387020000000     0.357640000000    -0.0728129  
C42      C      0.370800000000     0.402840000000     0.334000000000     0.102613   
C43      C      0.380050000000     0.396080000000     0.309960000000    -0.0562634  
C44      C      0.386670000000     0.374290000000     0.309640000000    -0.0245218  
C45      C      0.389930000000     0.333330000000     0.333340000000    -0.026872   
C46      C      0.666660000000     0.333330000000     0.041590000000    -0.0612851  
C47      C      0.666660000000     0.333330000000     0.096010000000    -0.0646975  
N1       N      0.493680000000     0.345770000000     0.660330000000    -0.135034   
N2       N      0.506600000000     0.322340000000     0.488820000000    -0.133976   
F1       F      0.458440000000     0.407440000000     0.688130000000    -0.458915   
F2       F      0.360710000000     0.504700000000     0.728530000000    -0.451142   
H1       H      0.616190000000     0.328380000000     0.648380000000     0.0471545  
H2       H      0.590970000000     0.364540000000     0.646260000000     0.0437446  
H3       H      0.539190000000     0.281910000000     0.609700000000     0.0445474  
H4       H      0.496140000000     0.280060000000     0.627910000000     0.0412214  
H5       H      0.548000000000     0.363030000000     0.664230000000     0.0501806  
H6       H      0.472290000000     0.302630000000     0.651030000000     0.0252651  
H7       H      0.495350000000     0.390390000000     0.683760000000     0.125665   
H8       H      0.438500000000     0.312180000000     0.641860000000     0.0661488  
H9       H      0.400490000000     0.323420000000     0.644800000000     0.0170401  
H10      H      0.426790000000     0.377310000000     0.369470000000     0.0457064  
H11      H      0.396240000000     0.288690000000     0.350680000000     0.0513396  
H12      H      0.423840000000     0.286060000000     0.388490000000     0.0861035  
H13      H      0.454310000000     0.374430000000     0.407110000000     0.0586521  
H14      H      0.443950000000     0.348690000000     0.452850000000     0.0183253  
H15      H      0.471130000000     0.345400000000     0.490800000000     0.0672022  
H16      H      0.503750000000     0.304240000000     0.438590000000     0.12945    
H17      H      0.507150000000     0.351520000000     0.516550000000     0.026322   
H18      H      0.618240000000     0.329990000000     0.546630000000     0.0492668  
H19      H      0.563750000000     0.292020000000     0.541000000000     0.0446293  
H20      H      0.529810000000     0.295490000000     0.510680000000     0.0521165  
H21      H      0.573760000000     0.364600000000     0.586430000000     0.0454692  
H22      H      0.539170000000     0.367700000000     0.556550000000     0.0429315  
H23      H      0.371100000000     0.353000000000     0.375800000000     0.0386865  
H24      H      0.360240000000     0.391550000000     0.376400000000     0.0544432  
H25      H      0.381430000000     0.407190000000     0.291170000000     0.0793909  
H26      H      0.392270000000     0.368970000000     0.290250000000     0.0430345  
H27      H      0.666660000000     0.333330000000     0.018950000000     0.0447657  
H28      H      0.666660000000     0.333330000000     0.118660000000     0.04694    
C1       C      0.669140000000     0.308900000000     0.612220000000     0.0167412  
C2       C      0.671280000000     0.287690000000     0.626320000000    -0.0568642  
C3       C      0.673330000000     0.266460000000     0.611580000000    -0.000539947
C4       C      0.654220000000     0.224590000000     0.642760000000    -0.0432504  
C5       C      0.676540000000     0.244610000000     0.626510000000     0.0135628  
C6       C      0.700650000000     0.241890000000     0.622150000000    -0.038314   
C7       C      0.701670000000     0.218430000000     0.632510000000    -0.0371032  
C8       C      0.678480000000     0.197270000000     0.647100000000     0.00920923 
C9       C      0.655060000000     0.200910000000     0.652840000000    -0.0309494  
C10      C      0.678020000000     0.170540000000     0.653790000000     0.0263525  
C11      C      0.624480000000     0.098990000000     0.675650000000    -0.222292   
C12      C      0.649770000000     0.119610000000     0.663380000000     0.158711   
C13      C      0.668510000000     0.111340000000     0.652290000000    -0.130833   
C14      C      0.661870000000     0.082930000000     0.653550000000     0.0583127  
C15      C      0.636410000000     0.062230000000     0.665710000000    -0.151409   
C16      C      0.617780000000     0.070530000000     0.676960000000     0.380204   
C17      C      0.614930000000     0.974050000000     0.666360000000     0.00916165 
C18      C      0.643110000000     0.068020000000     0.373820000000    -0.023255   
C19      C      0.667450000000     0.074730000000     0.357980000000     0.0120115  
C20      C      0.692540000000     0.100860000000     0.363160000000    -0.020085   
C21      C      0.693980000000     0.118420000000     0.384580000000    -0.0532797  
C22      C      0.670040000000     0.110980000000     0.400910000000     0.104091   
C23      C      0.644570000000     0.085680000000     0.395260000000    -0.068617   
C24      C      0.684200000000     0.159310000000     0.419980000000     0.382841   
C25      C      0.671610000000     0.129680000000     0.423660000000    -0.148665   
C26      C      0.660780000000     0.117970000000     0.449430000000     0.0590955  
C27      C      0.662620000000     0.135490000000     0.471170000000    -0.129507   
C28      C      0.675200000000     0.165110000000     0.467390000000     0.160839   
C29      C      0.686070000000     0.176740000000     0.441750000000    -0.220891   
C30      C      0.664130000000     0.177500000000     0.511910000000     0.0273746  
C31      C      0.672110000000     0.243220000000     0.566090000000     0.0135489  
C32      C      0.672560000000     0.266370000000     0.582560000000     0.00173257 
C33      C      0.670780000000     0.288070000000     0.568680000000    -0.058755   
C34      C      0.669120000000     0.309070000000     0.583340000000     0.0205098  
C35      C      0.691540000000     0.249870000000     0.544640000000    -0.041684   
C36      C      0.689520000000     0.228480000000     0.527350000000    -0.030357   
C37      C      0.667990000000     0.200010000000     0.531240000000     0.0104172  
C38      C      0.650980000000     0.214700000000     0.570360000000    -0.036997   
C39      C      0.649110000000     0.193250000000     0.553200000000    -0.0369354  
C40      C      0.634770000000     0.009140000000     0.357360000000    -0.0232611  
C41      C      0.612980000000     0.980730000000     0.357640000000    -0.0728011  
C42      C      0.597160000000     0.967960000000     0.334000000000     0.102607   
C43      C      0.603920000000     0.983970000000     0.309960000000    -0.0562515  
C44      C      0.625710000000     0.012380000000     0.309640000000    -0.0245321  
C45      C      0.666670000000     0.056600000000     0.333340000000    -0.0268741  
N1       N      0.654230000000     0.147910000000     0.660330000000    -0.135034   
N2       N      0.677660000000     0.184260000000     0.488820000000    -0.133976   
F1       F      0.592560000000     0.051000000000     0.688130000000    -0.458915   
F2       F      0.495300000000     0.856010000000     0.728530000000    -0.451141   
H1       H      0.671620000000     0.287810000000     0.648380000000     0.047155   
H2       H      0.635460000000     0.226430000000     0.646260000000     0.0437445  
H3       H      0.718090000000     0.257280000000     0.609700000000     0.0445478  
H4       H      0.719940000000     0.216080000000     0.627910000000     0.0412219  
H5       H      0.636970000000     0.184970000000     0.664230000000     0.0501807  
H6       H      0.697370000000     0.169660000000     0.651030000000     0.0252653  
H7       H      0.609610000000     0.104960000000     0.683760000000     0.125665   
H8       H      0.687820000000     0.126320000000     0.641860000000     0.0661491  
H9       H      0.676580000000     0.077070000000     0.644800000000     0.0170397  
H10      H      0.622690000000     0.049480000000     0.369470000000     0.0457062  
H11      H      0.711310000000     0.107550000000     0.350680000000     0.05134    
H12      H      0.713940000000     0.137780000000     0.388490000000     0.0861038  
H13      H      0.625570000000     0.079880000000     0.407110000000     0.058652   
H14      H      0.651310000000     0.095260000000     0.452850000000     0.0183253  
H15      H      0.654600000000     0.125730000000     0.490800000000     0.0672022  
H16      H      0.695760000000     0.199510000000     0.438590000000     0.129451   
H17      H      0.648480000000     0.155630000000     0.516550000000     0.0263219  
H18      H      0.670010000000     0.288250000000     0.546630000000     0.0492672  
H19      H      0.707980000000     0.271730000000     0.541000000000     0.0446296  
H20      H      0.704510000000     0.234320000000     0.510680000000     0.0521168  
H21      H      0.635400000000     0.209160000000     0.586430000000     0.0454692  
H22      H      0.632300000000     0.171470000000     0.556550000000     0.0429315  
H23      H      0.647000000000     0.018100000000     0.375800000000     0.0386885  
H24      H      0.608450000000     0.968690000000     0.376400000000     0.0544422  
H25      H      0.592810000000     0.974240000000     0.291170000000     0.0793899  
H26      H      0.631030000000     0.023300000000     0.290250000000     0.0430364  
C1       C      0.691100000000     0.360240000000     0.612220000000     0.0167274  
C2       C      0.712310000000     0.383590000000     0.626320000000    -0.0568578  
C3       C      0.733540000000     0.406870000000     0.611580000000    -0.000540979
C4       C      0.775410000000     0.429630000000     0.642760000000    -0.0432504  
C5       C      0.755390000000     0.431930000000     0.626510000000     0.0135632  
C6       C      0.758110000000     0.458760000000     0.622150000000    -0.0383142  
C7       C      0.781570000000     0.483240000000     0.632510000000    -0.0371032  
C8       C      0.802730000000     0.481210000000     0.647100000000     0.00920932 
C9       C      0.799090000000     0.454150000000     0.652840000000    -0.0309491  
C10      C      0.829460000000     0.507480000000     0.653790000000     0.0263527  
C11      C      0.901010000000     0.525490000000     0.675650000000    -0.222289   
C12      C      0.880390000000     0.530160000000     0.663380000000     0.15871    
C13      C      0.888660000000     0.557170000000     0.652290000000    -0.13083    
C14      C      0.917070000000     0.578940000000     0.653550000000     0.058309   
C15      C      0.937770000000     0.574180000000     0.665710000000    -0.151399   
C16      C      0.929470000000     0.547250000000     0.676960000000     0.380201   
C17      C      0.025950000000     0.640880000000     0.666360000000     0.00918205 
C18      C      0.931980000000     0.575090000000     0.373820000000    -0.0232532  
C19      C      0.925270000000     0.592720000000     0.357980000000     0.0120093  
C20      C      0.899140000000     0.591680000000     0.363160000000    -0.0200839  
C21      C      0.881580000000     0.575560000000     0.384580000000    -0.05328    
C22      C      0.889020000000     0.559060000000     0.400910000000     0.104092   
C23      C      0.914320000000     0.558890000000     0.395260000000    -0.0686168  
C24      C      0.840690000000     0.524890000000     0.419980000000     0.382841   
C25      C      0.870320000000     0.541930000000     0.423660000000    -0.148664   
C26      C      0.882030000000     0.542810000000     0.449430000000     0.0590959  
C27      C      0.864510000000     0.527130000000     0.471170000000    -0.129507   
C28      C      0.834890000000     0.510090000000     0.467390000000     0.160839   
C29      C      0.823260000000     0.509330000000     0.441750000000    -0.220891   
C30      C      0.822500000000     0.486630000000     0.511910000000     0.0273748  
C31      C      0.756780000000     0.428890000000     0.566090000000     0.0135495  
C32      C      0.733630000000     0.406190000000     0.582560000000     0.00173097 
C33      C      0.711930000000     0.382710000000     0.568680000000    -0.0587475  
C34      C      0.690930000000     0.360050000000     0.583340000000     0.0204936  
C35      C      0.750130000000     0.441670000000     0.544640000000    -0.0416843  
C36      C      0.771520000000     0.461040000000     0.527350000000    -0.0303569  
C37      C      0.799990000000     0.467980000000     0.531240000000     0.0104174  
C38      C      0.785300000000     0.436280000000     0.570360000000    -0.036997   
C39      C      0.806750000000     0.455860000000     0.553200000000    -0.0369352  
C40      C      0.990860000000     0.625630000000     0.357360000000    -0.0232224  
C41      C      0.019270000000     0.632250000000     0.357640000000    -0.072841   
C42      C      0.032040000000     0.629200000000     0.334000000000     0.102629   
C43      C      0.016030000000     0.619950000000     0.309960000000    -0.0562914  
C44      C      0.987620000000     0.613330000000     0.309640000000    -0.0244935  
C45      C      0.943400000000     0.610070000000     0.333340000000    -0.0268666  
N1       N      0.852090000000     0.506320000000     0.660330000000    -0.135034   
N2       N      0.815740000000     0.493400000000     0.488820000000    -0.133976   
F1       F      0.949000000000     0.541560000000     0.688130000000    -0.458911   
F2       F      0.143990000000     0.639290000000     0.728530000000    -0.451142   
H1       H      0.712190000000     0.383810000000     0.648380000000     0.0471542  
H2       H      0.773570000000     0.409030000000     0.646260000000     0.043745   
H3       H      0.742720000000     0.460810000000     0.609700000000     0.0445475  
H4       H      0.783920000000     0.503860000000     0.627910000000     0.0412216  
H5       H      0.815030000000     0.452000000000     0.664230000000     0.0501813  
H6       H      0.830340000000     0.527710000000     0.651030000000     0.0252655  
H7       H      0.895040000000     0.504650000000     0.683760000000     0.125666   
H8       H      0.873680000000     0.561500000000     0.641860000000     0.0661491  
H9       H      0.922930000000     0.599510000000     0.644800000000     0.0170426  
H10      H      0.950520000000     0.573210000000     0.369470000000     0.0457083  
H11      H      0.892450000000     0.603760000000     0.350680000000     0.0513394  
H12      H      0.862220000000     0.576160000000     0.388490000000     0.0861038  
H13      H      0.920120000000     0.545690000000     0.407110000000     0.058654   
H14      H      0.904740000000     0.556050000000     0.452850000000     0.018327   
H15      H      0.874270000000     0.528870000000     0.490800000000     0.0672033  
H16      H      0.800490000000     0.496250000000     0.438590000000     0.12945    
H17      H      0.844370000000     0.492850000000     0.516550000000     0.0263228  
H18      H      0.711750000000     0.381760000000     0.546630000000     0.0492663  
H19      H      0.728270000000     0.436250000000     0.541000000000     0.0446294  
H20      H      0.765680000000     0.470190000000     0.510680000000     0.0521166  
H21      H      0.790840000000     0.426240000000     0.586430000000     0.0454697  
H22      H      0.828530000000     0.460830000000     0.556550000000     0.0429324  
H23      H      0.981900000000     0.628900000000     0.375800000000     0.0386829  
H24      H      0.031310000000     0.639760000000     0.376400000000     0.0544474  
H25      H      0.025760000000     0.618570000000     0.291170000000     0.0793949  
H26      H      0.976700000000     0.607730000000     0.290250000000     0.0430308  
C1       C      0.997526666667     0.973093333333     0.721113333333     0.016736   
C2       C      0.995386666667     0.949743333333     0.707013333333    -0.0568569  
C3       C      0.993336666667     0.926463333333     0.721753333333    -0.000541228
C4       C      0.012446666667     0.903703333333     0.690573333333    -0.0432644  
C5       C      0.990126666667     0.901403333333     0.706823333333     0.0135791  
C6       C      0.966016666667     0.874573333333     0.711183333333    -0.0383163  
C7       C      0.964996666667     0.850093333333     0.700823333333    -0.0371026  
C8       C      0.988186666667     0.852123333333     0.686233333333     0.00922168 
C9       C      0.011606666667     0.879183333333     0.680493333333    -0.0309601  
C10      C      0.988646666667     0.825853333333     0.679543333333     0.0263634  
C11      C      0.042186666667     0.807843333333     0.657683333333    -0.222276   
C12      C      0.016896666667     0.803173333333     0.669953333333     0.158681   
C13      C      0.998156666667     0.776163333333     0.681043333333    -0.13078    
C14      C      0.004796666667     0.754393333333     0.679783333333     0.0582603  
C15      C      0.030256666667     0.759153333333     0.667623333333    -0.151386   
C16      C      0.048886666667     0.786083333333     0.656373333333     0.380189   
C17      C      0.051736666667     0.692453333333     0.666973333333     0.00917576 
C18      C      0.023556666667     0.758243333333     0.959513333333    -0.0232626  
C19      C      0.999216666667     0.740613333333     0.975353333333     0.012019   
C20      C      0.974126666667     0.741653333333     0.970173333333    -0.0200806  
C21      C      0.972686666667     0.757773333333     0.948753333333    -0.0532819  
C22      C      0.996626666667     0.774273333333     0.932423333333     0.104106   
C23      C      0.022096666667     0.774443333333     0.938073333333    -0.068631   
C24      C      0.982466666667     0.808443333333     0.913353333333     0.382842   
C25      C      0.995056666667     0.791403333333     0.909673333333    -0.148653   
C26      C      0.005886666667     0.790523333333     0.883903333333     0.059084   
C27      C      0.004046666667     0.806203333333     0.862163333333    -0.129521   
C28      C      0.991466666667     0.823243333333     0.865943333333     0.160854   
C29      C      0.980596666667     0.824003333333     0.891583333333    -0.220892   
C30      C      0.002536666667     0.846703333333     0.821423333333     0.0273404  
C31      C      0.994556666667     0.904443333333     0.767243333333     0.0135604  
C32      C      0.994106666667     0.927143333333     0.750773333333     0.00173265 
C33      C      0.995886666667     0.950623333333     0.764653333333    -0.0587484  
C34      C      0.997546666667     0.973283333333     0.749993333333     0.0205036  
C35      C      0.975126666667     0.891663333333     0.788693333333    -0.0416805  
C36      C      0.977146666667     0.872293333333     0.805983333333    -0.0303674  
C37      C      0.998676666667     0.865353333333     0.802093333333     0.010455   
C38      C      0.015686666667     0.897053333333     0.762973333333    -0.0370058  
C39      C      0.017556666667     0.877473333333     0.780133333333    -0.036958   
C40      C      0.031896666667     0.707703333333     0.975973333333    -0.023244   
C41      C      0.053686666667     0.701083333333     0.975693333333    -0.0728182  
C42      C      0.069506666667     0.704133333333     0.999333333333     0.102622   
C43      C      0.062746666667     0.713383333333     0.023373333333    -0.0562762  
C44      C      0.040956666667     0.720003333333     0.023693333333    -0.0245209  
C45      C      0.999996666667     0.723263333333     0.999993333333    -0.0268297  
C46      C      0.999996666667     0.999993333333     0.291743333333    -0.0612588  
C47      C      0.999996666667     0.999993333333     0.237323333333    -0.0646689  
N1       N      0.012436666667     0.827013333333     0.673003333333    -0.135038   
N2       N      0.989006666667     0.839933333333     0.844513333333    -0.133965   
F1       F      0.074106666667     0.791773333333     0.645203333333    -0.458913   
F2       F      0.171366666667     0.694043333333     0.604803333333    -0.451141   
H1       H      0.995046666667     0.949523333333     0.684953333333     0.0471579  
H2       H      0.031206666667     0.924303333333     0.687073333333     0.0437457  
H3       H      0.948576666667     0.872523333333     0.723633333333     0.0445487  
H4       H      0.946726666667     0.829473333333     0.705423333333     0.0412227  
H5       H      0.029696666667     0.881333333333     0.669103333333     0.0501817  
H6       H      0.969296666667     0.805623333333     0.682303333333     0.0252653  
H7       H      0.057056666667     0.828683333333     0.649573333333     0.125661   
H8       H      0.978846666667     0.771833333333     0.691473333333     0.0661394  
H9       H      0.990086666667     0.733823333333     0.688533333333     0.0170634  
H10      H      0.043976666667     0.760123333333     0.963863333333     0.0457082  
H11      H      0.955356666667     0.729573333333     0.982653333333     0.051341   
H12      H      0.952726666667     0.757173333333     0.944843333333     0.0861053  
H13      H      0.041096666667     0.787643333333     0.926223333333     0.058654   
H14      H      0.015356666667     0.777283333333     0.880483333333     0.0183255  
H15      H      0.012066666667     0.804463333333     0.842533333333     0.0672031  
H16      H      0.970906666667     0.837083333333     0.894743333333     0.129453   
H17      H      0.018186666667     0.840483333333     0.816783333333     0.0263279  
H18      H      0.996656666667     0.951573333333     0.786703333333     0.0492697  
H19      H      0.958686666667     0.897083333333     0.792333333333     0.0446296  
H20      H      0.962156666667     0.863143333333     0.822653333333     0.0521215  
H21      H      0.031266666667     0.907093333333     0.746903333333     0.0454688  
H22      H      0.034366666667     0.872503333333     0.776783333333     0.0429358  
H23      H      0.019666666667     0.704433333333     0.957533333333     0.0386812  
H24      H      0.058216666667     0.693573333333     0.956933333333     0.054444   
H25      H      0.073856666667     0.714763333333     0.042163333333     0.0793915  
H26      H      0.035636666667     0.725603333333     0.043083333333     0.0430312  
H27      H      0.999996666667     0.999993333333     0.314383333333     0.0447703  
H28      H      0.999996666667     0.999993333333     0.214673333333     0.0469417  
C1       C      0.026906666667     0.024433333333     0.721113333333     0.0167116  
C2       C      0.050256666667     0.045643333333     0.707013333333    -0.0568545  
C3       C      0.073536666667     0.066873333333     0.721753333333    -0.000542604
C4       C      0.096296666667     0.108743333333     0.690573333333    -0.0432511  
C5       C      0.098596666667     0.088723333333     0.706823333333     0.0135629  
C6       C      0.125426666667     0.091443333333     0.711183333333    -0.0383146  
C7       C      0.149906666667     0.114903333333     0.700823333333    -0.0371035  
C8       C      0.147876666667     0.136063333333     0.686233333333     0.00920873 
C9       C      0.120816666667     0.132423333333     0.680493333333    -0.0309497  
C10      C      0.174146666667     0.162793333333     0.679543333333     0.0263522  
C11      C      0.192156666667     0.234343333333     0.657683333333    -0.222291   
C12      C      0.196826666667     0.213723333333     0.669953333333     0.15871    
C13      C      0.223836666667     0.221993333333     0.681043333333    -0.130832   
C14      C      0.245606666667     0.250403333333     0.679783333333     0.0583112  
C15      C      0.240846666667     0.271103333333     0.667623333333    -0.151406   
C16      C      0.213916666667     0.262803333333     0.656373333333     0.380202   
C17      C      0.307546666667     0.359283333333     0.666973333333     0.0091731  
C18      C      0.241756666667     0.265313333333     0.959513333333    -0.0232525  
C19      C      0.259386666667     0.258603333333     0.975353333333     0.012008   
C20      C      0.258346666667     0.232473333333     0.970173333333    -0.0200823  
C21      C      0.242226666667     0.214913333333     0.948753333333    -0.0532807  
C22      C      0.225726666667     0.222353333333     0.932423333333     0.104092   
C23      C      0.225556666667     0.247653333333     0.938073333333    -0.0686178  
C24      C      0.191556666667     0.174023333333     0.913353333333     0.38284    
C25      C      0.208596666667     0.203653333333     0.909673333333    -0.148665   
C26      C      0.209476666667     0.215363333333     0.883903333333     0.0590954  
C27      C      0.193796666667     0.197843333333     0.862163333333    -0.129507   
C28      C      0.176756666667     0.168223333333     0.865943333333     0.160838   
C29      C      0.175996666667     0.156593333333     0.891583333333    -0.220891   
C30      C      0.153296666667     0.155833333333     0.821423333333     0.0273743  
C31      C      0.095556666667     0.090113333333     0.767243333333     0.0135494  
C32      C      0.072856666667     0.066963333333     0.750773333333     0.00172906 
C33      C      0.049376666667     0.045263333333     0.764653333333    -0.0587438  
C34      C      0.026716666667     0.024263333333     0.749993333333     0.020477   
C35      C      0.108336666667     0.083463333333     0.788693333333    -0.041685   
C36      C      0.127706666667     0.104853333333     0.805983333333    -0.0303573  
C37      C      0.134646666667     0.133323333333     0.802093333333     0.0104167  
C38      C      0.102946666667     0.118633333333     0.762973333333    -0.0369977  
C39      C      0.122526666667     0.140083333333     0.780133333333    -0.0369356  
C40      C      0.292296666667     0.324193333333     0.975973333333    -0.02325    
C41      C      0.298916666667     0.352603333333     0.975693333333    -0.0728138  
C42      C      0.295866666667     0.365373333333     0.999333333333     0.10262    
C43      C      0.286616666667     0.349363333333     0.023373333333    -0.0562718  
C44      C      0.279996666667     0.320953333333     0.023693333333    -0.0245281  
C45      C      0.276736666667     0.276733333333     0.999993333333    -0.0268566  
N1       N      0.172986666667     0.185423333333     0.673003333333    -0.135034   
N2       N      0.160066666667     0.149073333333     0.844513333333    -0.133977   
F1       F      0.208226666667     0.282333333333     0.645203333333    -0.458915   
F2       F      0.305956666667     0.477323333333     0.604803333333    -0.451142   
H1       H      0.050476666667     0.045523333333     0.684953333333     0.0471493  
H2       H      0.075696666667     0.106903333333     0.687073333333     0.043743   
H3       H      0.127476666667     0.076053333333     0.723633333333     0.0445469  
H4       H      0.170526666667     0.117253333333     0.705423333333     0.0412211  
H5       H      0.118666666667     0.148363333333     0.669103333333     0.0501797  
H6       H      0.194376666667     0.163673333333     0.682303333333     0.0252649  
H7       H      0.171316666667     0.228373333333     0.649573333333     0.125664   
H8       H      0.228166666667     0.207013333333     0.691473333333     0.0661486  
H9       H      0.266176666667     0.256263333333     0.688533333333     0.0170402  
H10      H      0.239876666667     0.283853333333     0.963863333333     0.0457065  
H11      H      0.270426666667     0.225783333333     0.982653333333     0.0513404  
H12      H      0.242826666667     0.195553333333     0.944843333333     0.0861038  
H13      H      0.212356666667     0.253453333333     0.926223333333     0.0586523  
H14      H      0.222716666667     0.238073333333     0.880483333333     0.0183253  
H15      H      0.195536666667     0.207603333333     0.842533333333     0.067202   
H16      H      0.162916666667     0.133823333333     0.894743333333     0.12945    
H17      H      0.159516666667     0.177703333333     0.816783333333     0.0263217  
H18      H      0.048426666667     0.045083333333     0.786703333333     0.0492613  
H19      H      0.102916666667     0.061603333333     0.792333333333     0.0446282  
H20      H      0.136856666667     0.099013333333     0.822653333333     0.0521158  
H21      H      0.092906666667     0.124173333333     0.746903333333     0.0454686  
H22      H      0.127496666667     0.161863333333     0.776783333333     0.042931   
H23      H      0.295566666667     0.315233333333     0.957533333333     0.0386867  
H24      H      0.306426666667     0.364643333333     0.956933333333     0.0544438  
H25      H      0.285236666667     0.359093333333     0.042163333333     0.0793913  
H26      H      0.274396666667     0.310033333333     0.043083333333     0.0430353  
C1       C      0.975566666667     0.002473333333     0.721113333333     0.0167373  
C2       C      0.954356666667     0.004613333333     0.707013333333    -0.0568624  
C3       C      0.933126666667     0.006663333333     0.721753333333    -0.000539028
C4       C      0.891256666667     0.987553333333     0.690573333333    -0.043244   
C5       C      0.911276666667     0.009873333333     0.706823333333     0.0135576  
C6       C      0.908556666667     0.033983333333     0.711183333333    -0.0383128  
C7       C      0.885096666667     0.035003333333     0.700823333333    -0.0371027  
C8       C      0.863936666667     0.011813333333     0.686233333333     0.0092049  
C9       C      0.867576666667     0.988393333333     0.680493333333    -0.0309438  
C10      C      0.837206666667     0.011353333333     0.679543333333     0.0263494  
C11      C      0.765656666667     0.957813333333     0.657683333333    -0.222296   
C12      C      0.786276666667     0.983103333333     0.669953333333     0.158723   
C13      C      0.778006666667     0.001843333333     0.681043333333    -0.130851   
C14      C      0.749596666667     0.995203333333     0.679783333333     0.0583323  
C15      C      0.728896666667     0.969743333333     0.667623333333    -0.151414   
C16      C      0.737196666667     0.951113333333     0.656373333333     0.380208   
C17      C      0.640716666667     0.948263333333     0.666973333333     0.00917208 
C18      C      0.734686666667     0.976443333333     0.959513333333    -0.0232485  
C19      C      0.741396666667     0.000783333333     0.975353333333     0.012005   
C20      C      0.767526666667     0.025873333333     0.970173333333    -0.0200826  
C21      C      0.785086666667     0.027313333333     0.948753333333    -0.0532801  
C22      C      0.777646666667     0.003373333333     0.932423333333     0.104088   
C23      C      0.752346666667     0.977903333333     0.938073333333    -0.0686125  
C24      C      0.825976666667     0.017533333333     0.913353333333     0.382841   
C25      C      0.796346666667     0.004943333333     0.909673333333    -0.148669   
C26      C      0.784636666667     0.994113333333     0.883903333333     0.0591009  
C27      C      0.802156666667     0.995953333333     0.862163333333    -0.129502   
C28      C      0.831776666667     0.008533333333     0.865943333333     0.160834   
C29      C      0.843406666667     0.019403333333     0.891583333333    -0.22089    
C30      C      0.844166666667     0.997463333333     0.821423333333     0.0273895  
C31      C      0.909886666667     0.005443333333     0.767243333333     0.0135457  
C32      C      0.933036666667     0.005893333333     0.750773333333     0.00173251 
C33      C      0.954736666667     0.004113333333     0.764653333333    -0.0587524  
C34      C      0.975736666667     0.002453333333     0.749993333333     0.0205052  
C35      C      0.916536666667     0.024873333333     0.788693333333    -0.0416851  
C36      C      0.895146666667     0.022853333333     0.805983333333    -0.0303521  
C37      C      0.866676666667     0.001323333333     0.802093333333     0.0104035  
C38      C      0.881366666667     0.984313333333     0.762973333333    -0.0369931  
C39      C      0.859916666667     0.982443333333     0.780133333333    -0.036926   
C40      C      0.675806666667     0.968103333333     0.975973333333    -0.0232518  
C41      C      0.647396666667     0.946313333333     0.975693333333    -0.0728119  
C42      C      0.634626666667     0.930493333333     0.999333333333     0.102619   
C43      C      0.650636666667     0.937253333333     0.023373333333    -0.0562697  
C44      C      0.679046666667     0.959043333333     0.023693333333    -0.0245301  
C45      C      0.723266666667     0.000003333333     0.999993333333    -0.0268659  
N1       N      0.814576666667     0.987563333333     0.673003333333    -0.135032   
N2       N      0.850926666667     0.010993333333     0.844513333333    -0.13398    
F1       F      0.717666666667     0.925893333333     0.645203333333    -0.458915   
F2       F      0.522676666667     0.828633333333     0.604803333333    -0.451141   
H1       H      0.954476666667     0.004953333333     0.684953333333     0.0471551  
H2       H      0.893096666667     0.968793333333     0.687073333333     0.043745   
H3       H      0.923946666667     0.051423333333     0.723633333333     0.0445489  
H4       H      0.882746666667     0.053273333333     0.705423333333     0.0412222  
H5       H      0.851636666667     0.970303333333     0.669103333333     0.050181   
H6       H      0.836326666667     0.030703333333     0.682303333333     0.0252657  
H7       H      0.771626666667     0.942943333333     0.649573333333     0.125667   
H8       H      0.792986666667     0.021153333333     0.691473333333     0.066153   
H9       H      0.743736666667     0.009913333333     0.688533333333     0.0170319  
H10      H      0.716146666667     0.956023333333     0.963863333333     0.0457061  
H11      H      0.774216666667     0.044643333333     0.982653333333     0.0513408  
H12      H      0.804446666667     0.047273333333     0.944843333333     0.0861043  
H13      H      0.746546666667     0.958903333333     0.926223333333     0.0586524  
H14      H      0.761926666667     0.984643333333     0.880483333333     0.0183259  
H15      H      0.792396666667     0.987933333333     0.842533333333     0.0672026  
H16      H      0.866176666667     0.029093333333     0.894743333333     0.129451   
H17      H      0.822296666667     0.981813333333     0.816783333333     0.0263199  
H18      H      0.954916666667     0.003343333333     0.786703333333     0.0492672  
H19      H      0.938396666667     0.041313333333     0.792333333333     0.0446318  
H20      H      0.900986666667     0.037843333333     0.822653333333     0.0521163  
H21      H      0.875826666667     0.968733333333     0.746903333333     0.0454697  
H22      H      0.838136666667     0.965633333333     0.776783333333     0.0429303  
H23      H      0.684766666667     0.980333333333     0.957533333333     0.0386894  
H24      H      0.635356666667     0.941783333333     0.956933333333     0.0544442  
H25      H      0.640906666667     0.926143333333     0.042163333333     0.0793916  
H26      H      0.689966666667     0.964363333333     0.043083333333     0.0430372  
C1       C      0.306426666667     0.664193333333     0.945553333333     0.016735   
C2       C      0.283076666667     0.662053333333     0.959653333333    -0.0568615  
C3       C      0.259796666667     0.660003333333     0.944913333333    -0.000540656
C4       C      0.237036666667     0.679113333333     0.976093333333    -0.0432508  
C5       C      0.234736666667     0.656793333333     0.959843333333     0.0135628  
C6       C      0.207906666667     0.632683333333     0.955483333333    -0.0383145  
C7       C      0.183426666667     0.631663333333     0.965843333333    -0.0371035  
C8       C      0.185456666667     0.654853333333     0.980433333333     0.00920863 
C9       C      0.212516666667     0.678273333333     0.986173333333    -0.0309495  
C10      C      0.159186666667     0.655313333333     0.987123333333     0.0263524  
C11      C      0.141176666667     0.708853333333     0.008983333333    -0.222301   
C12      C      0.136506666667     0.683563333333     0.996713333333     0.158719   
C13      C      0.109496666667     0.664823333333     0.985623333333    -0.130834   
C14      C      0.087726666667     0.671463333333     0.986883333333     0.0583117  
C15      C      0.092486666667     0.696923333333     0.999043333333    -0.151403   
C16      C      0.119416666667     0.715553333333     0.010293333333     0.380196   
C17      C      0.025786666667     0.718403333333     0.999693333333     0.0091528  
C18      C      0.091576666667     0.690223333333     0.707153333333    -0.0232497  
C19      C      0.073946666667     0.665883333333     0.691313333333     0.0120001  
C20      C      0.074986666667     0.640793333333     0.696493333333    -0.0200807  
C21      C      0.091106666667     0.639353333333     0.717913333333    -0.0532826  
C22      C      0.107606666667     0.663293333333     0.734243333333     0.104093   
C23      C      0.107776666667     0.688763333333     0.728593333333    -0.0686198  
C24      C      0.141776666667     0.649133333333     0.753313333333     0.382841   
C25      C      0.124736666667     0.661723333333     0.756993333333    -0.148666   
C26      C      0.123856666667     0.672553333333     0.782763333333     0.0590956  
C27      C      0.139536666667     0.670713333333     0.804503333333    -0.129508   
C28      C      0.156576666667     0.658133333333     0.800723333333     0.160838   
C29      C      0.157336666667     0.647263333333     0.775083333333    -0.220891   
C30      C      0.180036666667     0.669203333333     0.845243333333     0.0273745  
C31      C      0.237776666667     0.661223333333     0.899423333333     0.0135491  
C32      C      0.260476666667     0.660773333333     0.915893333333     0.00173191 
C33      C      0.283956666667     0.662553333333     0.902013333333    -0.058752   
C34      C      0.306616666667     0.664213333333     0.916673333333     0.0205029  
C35      C      0.224996666667     0.641793333333     0.877973333333    -0.0416843  
C36      C      0.205626666667     0.643813333333     0.860683333333    -0.0303571  
C37      C      0.198686666667     0.665343333333     0.864573333333     0.0104171  
C38      C      0.230386666667     0.682353333333     0.903693333333    -0.036997   
C39      C      0.210806666667     0.684223333333     0.886533333333    -0.0369353  
C40      C      0.041036666667     0.698563333333     0.690693333333    -0.0232578  
C41      C      0.034416666667     0.720353333333     0.690973333333    -0.0728076  
C42      C      0.037466666667     0.736173333333     0.667333333333     0.102602   
C43      C      0.046716666667     0.729413333333     0.643293333333    -0.0562582  
C44      C      0.053336666667     0.707623333333     0.642973333333    -0.0245268  
C46      C      0.333326666667     0.666663333333     0.374923333333    -0.0612856  
C47      C      0.333326666667     0.666663333333     0.429343333333    -0.0646972  
N1       N      0.160346666667     0.679103333333     0.993663333333    -0.135035   
N2       N      0.173266666667     0.655673333333     0.822153333333    -0.133977   
F1       F      0.125106666667     0.740773333333     0.021463333333    -0.458918   
F2       F      0.027376666667     0.838033333333     0.061863333333    -0.451145   
H1       H      0.282856666667     0.661713333333     0.981713333333     0.0471539  
H2       H      0.257636666667     0.697873333333     0.979593333333     0.0437443  
H3       H      0.205856666667     0.615243333333     0.943033333333     0.0445471  
H4       H      0.162806666667     0.613393333333     0.961243333333     0.0412207  
H5       H      0.214666666667     0.696363333333     0.997563333333     0.0501805  
H6       H      0.138956666667     0.635963333333     0.984363333333     0.0252643  
H7       H      0.162016666667     0.723723333333     0.017093333333     0.125663   
H8       H      0.105166666667     0.645513333333     0.975193333333     0.0661486  
H9       H      0.067156666667     0.656753333333     0.978133333333     0.017039   
H10      H      0.093456666667     0.710643333333     0.702803333333     0.0457051  
H11      H      0.062906666667     0.622023333333     0.684013333333     0.0513372  
H12      H      0.090506666667     0.619393333333     0.721823333333     0.0861033  
H13      H      0.120976666667     0.707763333333     0.740443333333     0.0586528  
H14      H      0.110616666667     0.682023333333     0.786183333333     0.0183248  
H15      H      0.137796666667     0.678733333333     0.824133333333     0.067202   
H16      H      0.170416666667     0.637573333333     0.771923333333     0.12945    
H17      H      0.173816666667     0.684853333333     0.849883333333     0.026322   
H18      H      0.284906666667     0.663323333333     0.879963333333     0.0492668  
H19      H      0.230416666667     0.625353333333     0.874333333333     0.0446291  
H20      H      0.196476666667     0.628823333333     0.844013333333     0.0521162  
H21      H      0.240426666667     0.697933333333     0.919763333333     0.0454694  
H22      H      0.205836666667     0.701033333333     0.889883333333     0.0429317  
H23      H      0.037766666667     0.686333333333     0.709133333333     0.0386867  
H24      H      0.026906666667     0.724883333333     0.709733333333     0.0544396  
H25      H      0.048096666667     0.740523333333     0.624503333333     0.0793886  
H26      H      0.058936666667     0.702303333333     0.623583333333     0.0430356  
H27      H      0.333326666667     0.666663333333     0.352283333333     0.0447676  
H28      H      0.333326666667     0.666663333333     0.451993333333     0.0469399  
C1       C      0.335806666667     0.642233333333     0.945553333333     0.0167409  
C2       C      0.337946666667     0.621023333333     0.959653333333    -0.0568643  
C3       C      0.339996666667     0.599793333333     0.944913333333    -0.000540211
C4       C      0.320886666667     0.557923333333     0.976093333333    -0.0432507  
C5       C      0.343206666667     0.577943333333     0.959843333333     0.0135626  
C6       C      0.367316666667     0.575223333333     0.955483333333    -0.0383143  
C7       C      0.368336666667     0.551763333333     0.965843333333    -0.0371035  
C8       C      0.345146666667     0.530603333333     0.980433333333     0.00920883 
C9       C      0.321726666667     0.534243333333     0.986173333333    -0.0309496  
C10      C      0.344686666667     0.503873333333     0.987123333333     0.0263525  
C11      C      0.291146666667     0.432323333333     0.008983333333    -0.222301   
C12      C      0.316436666667     0.452943333333     0.996713333333     0.158719   
C13      C      0.335176666667     0.444673333333     0.985623333333    -0.130834   
C14      C      0.328536666667     0.416263333333     0.986883333333     0.0583115  
C15      C      0.303076666667     0.395563333333     0.999043333333    -0.151401   
C16      C      0.284446666667     0.403863333333     0.010293333333     0.380195   
C17      C      0.281596666667     0.307383333333     0.999693333333     0.00917191 
C18      C      0.309776666667     0.401353333333     0.707153333333    -0.0232488  
C19      C      0.334116666667     0.408063333333     0.691313333333     0.0119985  
C20      C      0.359206666667     0.434193333333     0.696493333333    -0.0200796  
C21      C      0.360646666667     0.451753333333     0.717913333333    -0.0532826  
C22      C      0.336706666667     0.444313333333     0.734243333333     0.104093   
C23      C      0.311236666667     0.419013333333     0.728593333333    -0.06862    
C24      C      0.350866666667     0.492643333333     0.753313333333     0.382841   
C25      C      0.338276666667     0.463013333333     0.756993333333    -0.148666   
C26      C      0.327446666667     0.451303333333     0.782763333333     0.0590958  
C27      C      0.329286666667     0.468823333333     0.804503333333    -0.129508   
C28      C      0.341866666667     0.498443333333     0.800723333333     0.160839   
C29      C      0.352736666667     0.510073333333     0.775083333333    -0.220891   
C30      C      0.330796666667     0.510833333333     0.845243333333     0.0273745  
C31      C      0.338776666667     0.576553333333     0.899423333333     0.0135488  
C32      C      0.339226666667     0.599703333333     0.915893333333     0.00173254 
C33      C      0.337446666667     0.621403333333     0.902013333333    -0.0587552  
C34      C      0.335786666667     0.642403333333     0.916673333333     0.0205098  
C35      C      0.358206666667     0.583203333333     0.877973333333    -0.0416842  
C36      C      0.356186666667     0.561813333333     0.860683333333    -0.0303571  
C37      C      0.334656666667     0.533343333333     0.864573333333     0.0104171  
C38      C      0.317646666667     0.548033333333     0.903693333333    -0.036997   
C39      C      0.315776666667     0.526583333333     0.886533333333    -0.0369355  
C40      C      0.301436666667     0.342473333333     0.690693333333    -0.0232544  
C41      C      0.279646666667     0.314063333333     0.690973333333    -0.0728113  
C42      C      0.263826666667     0.301293333333     0.667333333333     0.102612   
C43      C      0.270586666667     0.317303333333     0.643293333333    -0.0562624  
C44      C      0.292376666667     0.345713333333     0.642973333333    -0.0245236  
N1       N      0.320896666667     0.481243333333     0.993663333333    -0.135035   
N2       N      0.344326666667     0.517593333333     0.822153333333    -0.133976   
F1       F      0.259226666667     0.384333333333     0.021463333333    -0.458918   
F2       F      0.161966666667     0.189343333333     0.061863333333    -0.451145   
H1       H      0.338286666667     0.621143333333     0.981713333333     0.0471542  
H2       H      0.302126666667     0.559763333333     0.979593333333     0.043744   
H3       H      0.384756666667     0.590613333333     0.943033333333     0.0445472  
H4       H      0.386606666667     0.549413333333     0.961243333333     0.0412212  
H5       H      0.303636666667     0.518303333333     0.997563333333     0.0501803  
H6       H      0.364036666667     0.502993333333     0.984363333333     0.0252648  
H7       H      0.276276666667     0.438293333333     0.017093333333     0.125663   
H8       H      0.354486666667     0.459653333333     0.975193333333     0.0661492  
H9       H      0.343246666667     0.410403333333     0.978133333333     0.0170405  
H10      H      0.289356666667     0.382813333333     0.702803333333     0.0457047  
H11      H      0.377976666667     0.440883333333     0.684013333333     0.051338   
H12      H      0.380606666667     0.471113333333     0.721823333333     0.0861042  
H13      H      0.292236666667     0.413213333333     0.740443333333     0.0586528  
H14      H      0.317976666667     0.428593333333     0.786183333333     0.0183252  
H15      H      0.321266666667     0.459063333333     0.824133333333     0.0672022  
H16      H      0.362426666667     0.532843333333     0.771923333333     0.12945    
H17      H      0.315146666667     0.488963333333     0.849883333333     0.0263219  
H18      H      0.336676666667     0.621583333333     0.879963333333     0.0492671  
H19      H      0.374646666667     0.605063333333     0.874333333333     0.0446293  
H20      H      0.371176666667     0.567653333333     0.844013333333     0.0521165  
H21      H      0.302066666667     0.542493333333     0.919763333333     0.0454691  
H22      H      0.298966666667     0.504803333333     0.889883333333     0.0429315  
H23      H      0.313666666667     0.351433333333     0.709133333333     0.0386871  
H24      H      0.275116666667     0.302023333333     0.709733333333     0.0544428  
H25      H      0.259476666667     0.307573333333     0.624503333333     0.0793907  
H26      H      0.297696666667     0.356633333333     0.623583333333     0.0430354  
C1       C      0.357766666667     0.693573333333     0.945553333333     0.0167271  
C2       C      0.378976666667     0.716923333333     0.959653333333    -0.0568578  
C3       C      0.400206666667     0.740203333333     0.944913333333    -0.00054116 
C4       C      0.442076666667     0.762963333333     0.976093333333    -0.0432508  
C5       C      0.422056666667     0.765263333333     0.959843333333     0.0135631  
C6       C      0.424776666667     0.792093333333     0.955483333333    -0.0383143  
C7       C      0.448236666667     0.816573333333     0.965843333333    -0.0371033  
C8       C      0.469396666667     0.814543333333     0.980433333333     0.00920903 
C9       C      0.465756666667     0.787483333333     0.986173333333    -0.0309495  
C10      C      0.496126666667     0.840813333333     0.987123333333     0.0263527  
C11      C      0.567676666667     0.858823333333     0.008983333333    -0.222301   
C12      C      0.547056666667     0.863493333333     0.996713333333     0.158719   
C13      C      0.555326666667     0.890503333333     0.985623333333    -0.130833   
C14      C      0.583736666667     0.912273333333     0.986883333333     0.0583116  
C15      C      0.604436666667     0.907513333333     0.999043333333    -0.151401   
C16      C      0.596136666667     0.880583333333     0.010293333333     0.380196   
C17      C      0.692616666667     0.974213333333     0.999693333333     0.00917879 
C18      C      0.598646666667     0.908423333333     0.707153333333    -0.0232483  
C19      C      0.591936666667     0.926053333333     0.691313333333     0.0119979  
C20      C      0.565806666667     0.925013333333     0.696493333333    -0.020079   
C21      C      0.548246666667     0.908893333333     0.717913333333    -0.0532825  
C22      C      0.555686666667     0.892393333333     0.734243333333     0.104094   
C23      C      0.580986666667     0.892223333333     0.728593333333    -0.0686201  
C24      C      0.507356666667     0.858223333333     0.753313333333     0.382841   
C25      C      0.536986666667     0.875263333333     0.756993333333    -0.148665   
C26      C      0.548696666667     0.876143333333     0.782763333333     0.0590961  
C27      C      0.531176666667     0.860463333333     0.804503333333    -0.129507   
C28      C      0.501556666667     0.843423333333     0.800723333333     0.160839   
C29      C      0.489926666667     0.842663333333     0.775083333333    -0.220891   
C30      C      0.489166666667     0.819963333333     0.845243333333     0.0273748  
C31      C      0.423446666667     0.762223333333     0.899423333333     0.0135495  
C32      C      0.400296666667     0.739523333333     0.915893333333     0.00173097 
C33      C      0.378596666667     0.716043333333     0.902013333333    -0.0587476  
C34      C      0.357596666667     0.693383333333     0.916673333333     0.0204937  
C35      C      0.416796666667     0.775003333333     0.877973333333    -0.0416843  
C36      C      0.438186666667     0.794373333333     0.860683333333    -0.0303568  
C37      C      0.466656666667     0.801313333333     0.864573333333     0.0104172  
C38      C      0.451966666667     0.769613333333     0.903693333333    -0.0369972  
C39      C      0.473416666667     0.789193333333     0.886533333333    -0.0369353  
C40      C      0.657526666667     0.958963333333     0.690693333333    -0.0232526  
C41      C      0.685936666667     0.965583333333     0.690973333333    -0.0728125  
C42      C      0.698706666667     0.962533333333     0.667333333333     0.102617   
C43      C      0.682696666667     0.953283333333     0.643293333333    -0.0562638  
C44      C      0.654286666667     0.946663333333     0.642973333333    -0.0245219  
N1       N      0.518756666667     0.839653333333     0.993663333333    -0.135035   
N2       N      0.482406666667     0.826733333333     0.822153333333    -0.133976   
F1       F      0.615666666667     0.874893333333     0.021463333333    -0.458917   
F2       F      0.810656666667     0.972623333333     0.061863333333    -0.451142   
H1       H      0.378856666667     0.717143333333     0.981713333333     0.0471535  
H2       H      0.440236666667     0.742363333333     0.979593333333     0.0437442  
H3       H      0.409386666667     0.794143333333     0.943033333333     0.0445477  
H4       H      0.450586666667     0.837193333333     0.961243333333     0.0412218  
H5       H      0.481696666667     0.785333333333     0.997563333333     0.0501805  
H6       H      0.497006666667     0.861043333333     0.984363333333     0.0252653  
H7       H      0.561706666667     0.837983333333     0.017093333333     0.125663   
H8       H      0.540346666667     0.894833333333     0.975193333333     0.0661499  
H9       H      0.589596666667     0.932843333333     0.978133333333     0.0170416  
H10      H      0.617186666667     0.906543333333     0.702803333333     0.0457048  
H11      H      0.559116666667     0.937093333333     0.684013333333     0.0513386  
H12      H      0.528886666667     0.909493333333     0.721823333333     0.086105   
H13      H      0.586786666667     0.879023333333     0.740443333333     0.0586531  
H14      H      0.571406666667     0.889383333333     0.786183333333     0.0183258  
H15      H      0.540936666667     0.862203333333     0.824133333333     0.0672026  
H16      H      0.467156666667     0.829583333333     0.771923333333     0.129451   
H17      H      0.511036666667     0.826183333333     0.849883333333     0.0263221  
H18      H      0.378416666667     0.715093333333     0.879963333333     0.0492662  
H19      H      0.394936666667     0.769583333333     0.874333333333     0.0446296  
H20      H      0.432346666667     0.803523333333     0.844013333333     0.0521168  
H21      H      0.457506666667     0.759573333333     0.919763333333     0.0454693  
H22      H      0.495196666667     0.794163333333     0.889883333333     0.0429316  
H23      H      0.648566666667     0.962233333333     0.709133333333     0.0386877  
H24      H      0.697976666667     0.973093333333     0.709733333333     0.0544449  
H25      H      0.692426666667     0.951903333333     0.624503333333     0.0793924  
H26      H      0.643366666667     0.941063333333     0.623583333333     0.0430357  
C1       C      0.664193333333     0.306426666667     0.054446666667     0.0167342  
C2       C      0.662053333333     0.283076666667     0.040346666667    -0.0568615  
C3       C      0.660003333333     0.259796666667     0.055086666667    -0.000541188
C4       C      0.679113333333     0.237036666667     0.023906666667    -0.0432517  
C5       C      0.656793333333     0.234736666667     0.040156666667     0.0135625  
C6       C      0.632683333333     0.207906666667     0.044516666667    -0.0383152  
C7       C      0.631663333333     0.183426666667     0.034156666667    -0.0371039  
C8       C      0.654853333333     0.185456666667     0.019566666667     0.00920758 
C9       C      0.678273333333     0.212516666667     0.013826666667    -0.0309503  
C10      C      0.655313333333     0.159186666667     0.012876666667     0.0263506  
C11      C      0.708853333333     0.141176666667     0.991016666667    -0.222282   
C12      C      0.683563333333     0.136506666667     0.003286666667     0.158699   
C13      C      0.664823333333     0.109496666667     0.014376666667    -0.130831   
C14      C      0.671463333333     0.087726666667     0.013116666667     0.0583103  
C15      C      0.696923333333     0.092486666667     0.000956666667    -0.151415   
C16      C      0.715553333333     0.119416666667     0.989706666667     0.380209   
C17      C      0.718403333333     0.025786666667     0.000306666667     0.00915225 
C18      C      0.690223333333     0.091576666667     0.292846666667    -0.0232491  
C19      C      0.665883333333     0.073946666667     0.308686666667     0.0119991  
C20      C      0.640793333333     0.074986666667     0.303506666667    -0.02008    
C21      C      0.639353333333     0.091106666667     0.282086666667    -0.0532826  
C22      C      0.663293333333     0.107606666667     0.265756666667     0.104093   
C23      C      0.688763333333     0.107776666667     0.271406666667    -0.0686198  
C24      C      0.649133333333     0.141776666667     0.246686666667     0.382841   
C25      C      0.661723333333     0.124736666667     0.243006666667    -0.148666   
C26      C      0.672553333333     0.123856666667     0.217236666667     0.0590957  
C27      C      0.670713333333     0.139536666667     0.195496666667    -0.129508   
C28      C      0.658133333333     0.156576666667     0.199276666667     0.160839   
C29      C      0.647263333333     0.157336666667     0.224916666667    -0.220891   
C30      C      0.669203333333     0.180036666667     0.154756666667     0.0273745  
C31      C      0.661223333333     0.237776666667     0.100576666667     0.013549   
C32      C      0.660773333333     0.260476666667     0.084106666667     0.00173204 
C33      C      0.662553333333     0.283956666667     0.097986666667    -0.0587523  
C34      C      0.664213333333     0.306616666667     0.083326666667     0.0205032  
C35      C      0.641793333333     0.224996666667     0.122026666667    -0.0416843  
C36      C      0.643813333333     0.205626666667     0.139316666667    -0.0303571  
C37      C      0.665343333333     0.198686666667     0.135426666667     0.0104171  
C38      C      0.682353333333     0.230386666667     0.096306666667    -0.036997   
C39      C      0.684223333333     0.210806666667     0.113466666667    -0.0369354  
C40      C      0.698563333333     0.041036666667     0.309306666667    -0.0232556  
C41      C      0.720353333333     0.034416666667     0.309026666667    -0.0728097  
C42      C      0.736173333333     0.037466666667     0.332666666667     0.102608   
C43      C      0.729413333333     0.046716666667     0.356706666667    -0.0562606  
C44      C      0.707623333333     0.053336666667     0.357026666667    -0.0245246  
C46      C      0.666663333333     0.333326666667     0.625076666667    -0.0612857  
C47      C      0.666663333333     0.333326666667     0.570656666667    -0.0646972  
N1       N      0.679103333333     0.160346666667     0.006336666667    -0.135035   
N2       N      0.655673333333     0.173266666667     0.177846666667    -0.133976   
F1       F      0.740773333333     0.125106666667     0.978536666667    -0.458914   
F2       F      0.838033333333     0.027376666667     0.938136666667    -0.451141   
H1       H      0.661713333333     0.282856666667     0.018286666667     0.0471522  
H2       H      0.697873333333     0.257636666667     0.020406666667     0.043743   
H3       H      0.615243333333     0.205856666667     0.056966666667     0.0445466  
H4       H      0.613393333333     0.162806666667     0.038756666667     0.0412198  
H5       H      0.696363333333     0.214666666667     0.002436666667     0.0501779  
H6       H      0.635963333333     0.138956666667     0.015636666667     0.0252635  
H7       H      0.723723333333     0.162016666667     0.982906666667     0.125665   
H8       H      0.645513333333     0.105166666667     0.024806666667     0.0661468  
H9       H      0.656753333333     0.067156666667     0.021866666667     0.0170382  
H10      H      0.710643333333     0.093456666667     0.297196666667     0.0457051  
H11      H      0.622023333333     0.062906666667     0.315986666667     0.0513378  
H12      H      0.619393333333     0.090506666667     0.278176666667     0.0861039  
H13      H      0.707763333333     0.120976666667     0.259556666667     0.0586531  
H14      H      0.682023333333     0.110616666667     0.213816666667     0.0183251  
H15      H      0.678733333333     0.137796666667     0.175866666667     0.067202   
H16      H      0.637573333333     0.170416666667     0.228076666667     0.12945    
H17      H      0.684853333333     0.173816666667     0.150116666667     0.0263219  
H18      H      0.663323333333     0.284906666667     0.120036666667     0.0492669  
H19      H      0.625353333333     0.230416666667     0.125666666667     0.0446291  
H20      H      0.628823333333     0.196476666667     0.155986666667     0.0521163  
H21      H      0.697933333333     0.240426666667     0.080236666667     0.045469   
H22      H      0.701033333333     0.205836666667     0.110116666667     0.0429313  
H23      H      0.686333333333     0.037766666667     0.290866666667     0.0386871  
H24      H      0.724883333333     0.026906666667     0.290266666667     0.0544418  
H25      H      0.740523333333     0.048096666667     0.375496666667     0.0793904  
H26      H      0.702303333333     0.058936666667     0.376416666667     0.0430357  
H27      H      0.666663333333     0.333326666667     0.647716666667     0.044768   
H28      H      0.666663333333     0.333326666667     0.548006666667     0.04694    
C1       C      0.693573333333     0.357766666667     0.054446666667     0.0167263  
C2       C      0.716923333333     0.378976666667     0.040346666667    -0.0568578  
C3       C      0.740203333333     0.400206666667     0.055086666667    -0.000541709
C4       C      0.762963333333     0.442076666667     0.023906666667    -0.0432517  
C5       C      0.765263333333     0.422056666667     0.040156666667     0.0135627  
C6       C      0.792093333333     0.424776666667     0.044516666667    -0.0383149  
C7       C      0.816573333333     0.448236666667     0.034156666667    -0.0371037  
C8       C      0.814543333333     0.469396666667     0.019566666667     0.00920796 
C9       C      0.787483333333     0.465756666667     0.013826666667    -0.0309503  
C10      C      0.840813333333     0.496126666667     0.012876666667     0.0263509  
C11      C      0.858823333333     0.567676666667     0.991016666667    -0.222282   
C12      C      0.863493333333     0.547056666667     0.003286666667     0.1587     
C13      C      0.890503333333     0.555326666667     0.014376666667    -0.130831   
C14      C      0.912273333333     0.583736666667     0.013116666667     0.0583112  
C15      C      0.907513333333     0.604436666667     0.000956666667    -0.151415   
C16      C      0.880583333333     0.596136666667     0.989706666667     0.380209   
C17      C      0.974213333333     0.692616666667     0.000306666667     0.00914667 
C18      C      0.908423333333     0.598646666667     0.292846666667    -0.0232477  
C19      C      0.926053333333     0.591936666667     0.308686666667     0.0119969  
C20      C      0.925013333333     0.565806666667     0.303506666667    -0.0200782  
C21      C      0.908893333333     0.548246666667     0.282086666667    -0.0532824  
C22      C      0.892393333333     0.555686666667     0.265756666667     0.104094   
C23      C      0.892223333333     0.580986666667     0.271406666667    -0.0686201  
C24      C      0.858223333333     0.507356666667     0.246686666667     0.382841   
C25      C      0.875263333333     0.536986666667     0.243006666667    -0.148665   
C26      C      0.876143333333     0.548696666667     0.217236666667     0.0590962  
C27      C      0.860463333333     0.531176666667     0.195496666667    -0.129507   
C28      C      0.843423333333     0.501556666667     0.199276666667     0.160839   
C29      C      0.842663333333     0.489926666667     0.224916666667    -0.220891   
C30      C      0.819963333333     0.489166666667     0.154756666667     0.0273748  
C31      C      0.762223333333     0.423446666667     0.100576666667     0.0135493  
C32      C      0.739523333333     0.400296666667     0.084106666667     0.00173108 
C33      C      0.716043333333     0.378596666667     0.097986666667    -0.0587479  
C34      C      0.693383333333     0.357596666667     0.083326666667     0.0204939  
C35      C      0.775003333333     0.416796666667     0.122026666667    -0.0416843  
C36      C      0.794373333333     0.438186666667     0.139316666667    -0.0303569  
C37      C      0.801313333333     0.466656666667     0.135426666667     0.0104172  
C38      C      0.769613333333     0.451966666667     0.096306666667    -0.0369972  
C39      C      0.789193333333     0.473416666667     0.113466666667    -0.0369354  
C40      C      0.958963333333     0.657526666667     0.309306666667    -0.0232504  
C41      C      0.965583333333     0.685936666667     0.309026666667    -0.0728145  
C42      C      0.962533333333     0.698706666667     0.332666666667     0.102623   
C43      C      0.953283333333     0.682696666667     0.356706666667    -0.0562661  
C44      C      0.946663333333     0.654286666667     0.357026666667    -0.0245198  
N1       N      0.839653333333     0.518756666667     0.006336666667    -0.135035   
N2       N      0.826733333333     0.482406666667     0.177846666667    -0.133976   
F1       F      0.874893333333     0.615666666667     0.978536666667    -0.458914   
F2       F      0.972623333333     0.810656666667     0.938136666667    -0.451138   
H1       H      0.717143333333     0.378856666667     0.018286666667     0.0471518  
H2       H      0.742363333333     0.440236666667     0.020406666667     0.0437427  
H3       H      0.794143333333     0.409386666667     0.056966666667     0.0445472  
H4       H      0.837193333333     0.450586666667     0.038756666667     0.0412209  
H5       H      0.785333333333     0.481696666667     0.002436666667     0.0501778  
H6       H      0.861043333333     0.497006666667     0.015636666667     0.0252646  
H7       H      0.837983333333     0.561706666667     0.982906666667     0.125665   
H8       H      0.894833333333     0.540346666667     0.024806666667     0.0661482  
H9       H      0.932843333333     0.589596666667     0.021866666667     0.0170406  
H10      H      0.906543333333     0.617186666667     0.297196666667     0.0457047  
H11      H      0.937093333333     0.559116666667     0.315986666667     0.0513392  
H12      H      0.909493333333     0.528886666667     0.278176666667     0.0861056  
H13      H      0.879023333333     0.586786666667     0.259556666667     0.0586532  
H14      H      0.889383333333     0.571406666667     0.213816666667     0.018326   
H15      H      0.862203333333     0.540936666667     0.175866666667     0.0672026  
H16      H      0.829583333333     0.467156666667     0.228076666667     0.129451   
H17      H      0.826183333333     0.511036666667     0.150116666667     0.0263219  
H18      H      0.715093333333     0.378416666667     0.120036666667     0.0492663  
H19      H      0.769583333333     0.394936666667     0.125666666667     0.0446295  
H20      H      0.803523333333     0.432346666667     0.155986666667     0.0521169  
H21      H      0.759573333333     0.457506666667     0.080236666667     0.0454688  
H22      H      0.794163333333     0.495196666667     0.110116666667     0.0429311  
H23      H      0.962233333333     0.648566666667     0.290866666667     0.038688   
H24      H      0.973093333333     0.697976666667     0.290266666667     0.054447   
H25      H      0.951903333333     0.692426666667     0.375496666667     0.079394   
H26      H      0.941063333333     0.643366666667     0.376416666667     0.0430358  
C1       C      0.642233333333     0.335806666667     0.054446666667     0.0167401  
C2       C      0.621023333333     0.337946666667     0.040346666667    -0.0568643  
C3       C      0.599793333333     0.339996666667     0.055086666667    -0.000540788
C4       C      0.557923333333     0.320886666667     0.023906666667    -0.0432516  
C5       C      0.577943333333     0.343206666667     0.040156666667     0.0135623  
C6       C      0.575223333333     0.367316666667     0.044516666667    -0.0383151  
C7       C      0.551763333333     0.368336666667     0.034156666667    -0.037104   
C8       C      0.530603333333     0.345146666667     0.019566666667     0.00920757 
C9       C      0.534243333333     0.321726666667     0.013826666667    -0.0309504  
C10      C      0.503873333333     0.344686666667     0.012876666667     0.0263506  
C11      C      0.432323333333     0.291146666667     0.991016666667    -0.222282   
C12      C      0.452943333333     0.316436666667     0.003286666667     0.1587     
C13      C      0.444673333333     0.335176666667     0.014376666667    -0.130831   
C14      C      0.416263333333     0.328536666667     0.013116666667     0.0583104  
C15      C      0.395563333333     0.303076666667     0.000956666667    -0.151415   
C16      C      0.403863333333     0.284446666667     0.989706666667     0.380209   
C17      C      0.307383333333     0.281596666667     0.000306666667     0.00915124 
C18      C      0.401353333333     0.309776666667     0.292846666667    -0.0232488  
C19      C      0.408063333333     0.334116666667     0.308686666667     0.0119985  
C20      C      0.434193333333     0.359206666667     0.303506666667    -0.0200796  
C21      C      0.451753333333     0.360646666667     0.282086666667    -0.0532826  
C22      C      0.444313333333     0.336706666667     0.265756666667     0.104093   
C23      C      0.419013333333     0.311236666667     0.271406666667    -0.06862    
C24      C      0.492643333333     0.350866666667     0.246686666667     0.382841   
C25      C      0.463013333333     0.338276666667     0.243006666667    -0.148666   
C26      C      0.451303333333     0.327446666667     0.217236666667     0.0590957  
C27      C      0.468823333333     0.329286666667     0.195496666667    -0.129508   
C28      C      0.498443333333     0.341866666667     0.199276666667     0.160838   
C29      C      0.510073333333     0.352736666667     0.224916666667    -0.220891   
C30      C      0.510833333333     0.330796666667     0.154756666667     0.0273744  
C31      C      0.576553333333     0.338776666667     0.100576666667     0.0135487  
C32      C      0.599703333333     0.339226666667     0.084106666667     0.00173265 
C33      C      0.621403333333     0.337446666667     0.097986666667    -0.0587555  
C34      C      0.642403333333     0.335786666667     0.083326666667     0.0205101  
C35      C      0.583203333333     0.358206666667     0.122026666667    -0.0416842  
C36      C      0.561813333333     0.356186666667     0.139316666667    -0.0303572  
C37      C      0.533343333333     0.334656666667     0.135426666667     0.010417   
C38      C      0.548033333333     0.317646666667     0.096306666667    -0.036997   
C39      C      0.526583333333     0.315776666667     0.113466666667    -0.0369356  
C40      C      0.342473333333     0.301436666667     0.309306666667    -0.0232544  
C41      C      0.314063333333     0.279646666667     0.309026666667    -0.0728113  
C42      C      0.301293333333     0.263826666667     0.332666666667     0.102612   
C43      C      0.317303333333     0.270586666667     0.356706666667    -0.0562624  
C44      C      0.345713333333     0.292376666667     0.357026666667    -0.0245235  
N1       N      0.481243333333     0.320896666667     0.006336666667    -0.135035   
N2       N      0.517593333333     0.344326666667     0.177846666667    -0.133976   
F1       F      0.384333333333     0.259226666667     0.978536666667    -0.458915   
F2       F      0.189343333333     0.161966666667     0.938136666667    -0.451142   
H1       H      0.621143333333     0.338286666667     0.018286666667     0.0471525  
H2       H      0.559763333333     0.302126666667     0.020406666667     0.0437426  
H3       H      0.590613333333     0.384756666667     0.056966666667     0.0445465  
H4       H      0.549413333333     0.386606666667     0.038756666667     0.0412198  
H5       H      0.518303333333     0.303636666667     0.002436666667     0.0501776  
H6       H      0.502993333333     0.364036666667     0.015636666667     0.0252636  
H7       H      0.438293333333     0.276276666667     0.982906666667     0.125664   
H8       H      0.459653333333     0.354486666667     0.024806666667     0.0661469  
H9       H      0.410403333333     0.343246666667     0.021866666667     0.0170384  
H10      H      0.382813333333     0.289356666667     0.297196666667     0.0457048  
H11      H      0.440883333333     0.377976666667     0.315986666667     0.0513379  
H12      H      0.471113333333     0.380606666667     0.278176666667     0.086104   
H13      H      0.413213333333     0.292236666667     0.259556666667     0.0586528  
H14      H      0.428593333333     0.317976666667     0.213816666667     0.0183251  
H15      H      0.459063333333     0.321266666667     0.175866666667     0.0672019  
H16      H      0.532843333333     0.362426666667     0.228076666667     0.12945    
H17      H      0.488963333333     0.315146666667     0.150116666667     0.0263217  
H18      H      0.621583333333     0.336676666667     0.120036666667     0.0492672  
H19      H      0.605063333333     0.374646666667     0.125666666667     0.044629   
H20      H      0.567653333333     0.371176666667     0.155986666667     0.0521163  
H21      H      0.542493333333     0.302066666667     0.080236666667     0.0454687  
H22      H      0.504803333333     0.298966666667     0.110116666667     0.042931   
H23      H      0.351433333333     0.313666666667     0.290866666667     0.038687   
H24      H      0.302023333333     0.275116666667     0.290266666667     0.0544427  
H25      H      0.307573333333     0.259476666667     0.375496666667     0.0793908  
H26      H      0.356633333333     0.297696666667     0.376416666667     0.0430354  
C1       C      0.973093333333     0.997526666667     0.278886666667     0.0167361  
C2       C      0.949743333333     0.995386666667     0.292986666667    -0.0568578  
C3       C      0.926463333333     0.993336666667     0.278246666667    -0.000540212
C4       C      0.903703333333     0.012446666667     0.309426666667    -0.0432559  
C5       C      0.901403333333     0.990126666667     0.293176666667     0.0135704  
C6       C      0.874573333333     0.966016666667     0.288816666667    -0.0383151  
C7       C      0.850093333333     0.964996666667     0.299176666667    -0.0371027  
C8       C      0.852123333333     0.988186666667     0.313766666667     0.00921466 
C9       C      0.879183333333     0.011606666667     0.319506666667    -0.0309531  
C10      C      0.825853333333     0.988646666667     0.320456666667     0.0263576  
C11      C      0.807843333333     0.042186666667     0.342316666667    -0.222285   
C12      C      0.803173333333     0.016896666667     0.330046666667     0.158699   
C13      C      0.776163333333     0.998156666667     0.318956666667    -0.13081    
C14      C      0.754393333333     0.004796666667     0.320216666667     0.058291   
C15      C      0.759153333333     0.030256666667     0.332376666667    -0.151398   
C16      C      0.786083333333     0.048886666667     0.343626666667     0.380198   
C17      C      0.692453333333     0.051736666667     0.333026666667     0.00917419 
C18      C      0.758243333333     0.023556666667     0.040486666667    -0.0232532  
C19      C      0.740613333333     0.999216666667     0.024646666667     0.0120006  
C20      C      0.741653333333     0.974126666667     0.029826666667    -0.0200799  
C21      C      0.757773333333     0.972686666667     0.051246666667    -0.0532841  
C22      C      0.774273333333     0.996626666667     0.067576666667     0.104099   
C23      C      0.774443333333     0.022096666667     0.061926666667    -0.0686264  
C24      C      0.808443333333     0.982466666667     0.086646666667     0.382841   
C25      C      0.791403333333     0.995056666667     0.090326666667    -0.148661   
C26      C      0.790523333333     0.005886666667     0.116096666667     0.0590912  
C27      C      0.806203333333     0.004046666667     0.137836666667    -0.129513   
C28      C      0.823243333333     0.991466666667     0.134056666667     0.160845   
C29      C      0.824003333333     0.980596666667     0.108416666667    -0.220892   
C30      C      0.846703333333     0.002536666667     0.178576666667     0.0273607  
C31      C      0.904443333333     0.994556666667     0.232756666667     0.0135547  
C32      C      0.927143333333     0.994106666667     0.249226666667     0.0017325  
C33      C      0.950623333333     0.995886666667     0.235346666667    -0.0587483  
C34      C      0.973283333333     0.997546666667     0.250006666667     0.0205029  
C35      C      0.891663333333     0.975126666667     0.211306666667    -0.0416826  
C36      C      0.872293333333     0.977146666667     0.194016666667    -0.0303611  
C37      C      0.865353333333     0.998676666667     0.197906666667     0.0104335  
C38      C      0.897053333333     0.015686666667     0.237026666667    -0.0370004  
C39      C      0.877473333333     0.017556666667     0.219866666667    -0.0369445  
C40      C      0.707703333333     0.031896666667     0.024026666667    -0.0232505  
C41      C      0.701083333333     0.053686666667     0.024306666667    -0.0728134  
C42      C      0.704133333333     0.069506666667     0.000666666667     0.102604   
C43      C      0.713383333333     0.062746666667     0.976626666667    -0.0562569  
C44      C      0.720003333333     0.040956666667     0.976306666667    -0.0245118  
C46      C      0.999993333333     0.999996666667     0.708256666667    -0.0612647  
C47      C      0.999993333333     0.999996666667     0.762676666667    -0.0646755  
N1       N      0.827013333333     0.012436666667     0.326996666667    -0.135035   
N2       N      0.839933333333     0.989006666667     0.155486666667    -0.133972   
F1       F      0.791773333333     0.074106666667     0.354796666667    -0.458913   
F2       F      0.694043333333     0.171366666667     0.395196666667    -0.451141   
H1       H      0.949523333333     0.995046666667     0.315046666667     0.0471574  
H2       H      0.924303333333     0.031206666667     0.312926666667     0.0437466  
H3       H      0.872523333333     0.948576666667     0.276366666667     0.0445482  
H4       H      0.829473333333     0.946726666667     0.294576666667     0.0412219  
H5       H      0.881333333333     0.029696666667     0.330896666667     0.050182   
H6       H      0.805623333333     0.969296666667     0.317696666667     0.0252652  
H7       H      0.828683333333     0.057056666667     0.350426666667     0.125664   
H8       H      0.771833333333     0.978846666667     0.308526666667     0.0661449  
H9       H      0.733823333333     0.990086666667     0.311466666667     0.0170498  
H10      H      0.760123333333     0.043976666667     0.036136666667     0.0457039  
H11      H      0.729573333333     0.955356666667     0.017346666667     0.0513347  
H12      H      0.757173333333     0.952726666667     0.055156666667     0.0861034  
H13      H      0.787643333333     0.041096666667     0.073776666667     0.058653   
H14      H      0.777283333333     0.015356666667     0.119516666667     0.0183253  
H15      H      0.804463333333     0.012066666667     0.157466666667     0.0672028  
H16      H      0.837083333333     0.970906666667     0.105256666667     0.129451   
H17      H      0.840483333333     0.018186666667     0.183216666667     0.0263246  
H18      H      0.951573333333     0.996656666667     0.213296666667     0.0492692  
H19      H      0.897083333333     0.958686666667     0.207666666667     0.0446299  
H20      H      0.863143333333     0.962156666667     0.177346666667     0.0521185  
H21      H      0.907093333333     0.031266666667     0.253096666667     0.0454699  
H22      H      0.872503333333     0.034366666667     0.223216666667     0.0429339  
H23      H      0.704433333333     0.019666666667     0.042466666667     0.038684   
H24      H      0.693573333333     0.058216666667     0.043066666667     0.0544425  
H25      H      0.714763333333     0.073856666667     0.957836666667     0.0793908  
H26      H      0.725603333333     0.035636666667     0.956916666667     0.0430325  
H27      H      0.999993333333     0.999996666667     0.685616666667     0.0447705  
H28      H      0.999993333333     0.999996666667     0.785326666667     0.0469423  
C1       C      0.002473333333     0.975566666667     0.278886666667     0.0167308  
C2       C      0.004613333333     0.954356666667     0.292986666667    -0.0568628  
C3       C      0.006663333333     0.933126666667     0.278246666667    -0.000538933
C4       C      0.987553333333     0.891256666667     0.309426666667    -0.0432359  
C5       C      0.009873333333     0.911276666667     0.293176666667     0.0135485  
C6       C      0.033983333333     0.908556666667     0.288816666667    -0.0383119  
C7       C      0.035003333333     0.885096666667     0.299176666667    -0.0371032  
C8       C      0.011813333333     0.863936666667     0.313766666667     0.0091976  
C9       C      0.988393333333     0.867576666667     0.319506666667    -0.0309371  
C10      C      0.011353333333     0.837206666667     0.320456666667     0.0263433  
C11      C      0.957813333333     0.765656666667     0.342316666667    -0.222305   
C12      C      0.983103333333     0.786276666667     0.330046666667     0.158741   
C13      C      0.001843333333     0.778006666667     0.318956666667    -0.130882   
C14      C      0.995203333333     0.749596666667     0.320216666667     0.0583629  
C15      C      0.969743333333     0.728896666667     0.332376666667    -0.151426   
C16      C      0.951113333333     0.737196666667     0.343626666667     0.380216   
C17      C      0.948263333333     0.640716666667     0.333026666667     0.00917052 
C18      C      0.976443333333     0.734686666667     0.040486666667    -0.0232247  
C19      C      0.000783333333     0.741396666667     0.024646666667     0.011955   
C20      C      0.025873333333     0.767526666667     0.029826666667    -0.0200677  
C21      C      0.027313333333     0.785086666667     0.051246666667    -0.0532899  
C22      C      0.003373333333     0.777646666667     0.067576666667     0.104087   
C23      C      0.977903333333     0.752346666667     0.061926666667    -0.0686155  
C24      C      0.017533333333     0.825976666667     0.086646666667     0.382841   
C25      C      0.004943333333     0.796346666667     0.090326666667    -0.148679   
C26      C      0.994113333333     0.784636666667     0.116096666667     0.0591089  
C27      C      0.995953333333     0.802156666667     0.137836666667    -0.129495   
C28      C      0.008533333333     0.831776666667     0.134056666667     0.160825   
C29      C      0.019403333333     0.843406666667     0.108416666667    -0.22089    
C30      C      0.997463333333     0.844166666667     0.178576666667     0.0274094  
C31      C      0.005443333333     0.909886666667     0.232756666667     0.0135396  
C32      C      0.005893333333     0.933036666667     0.249226666667     0.0017314  
C33      C      0.004113333333     0.954736666667     0.235346666667    -0.0587518  
C34      C      0.002453333333     0.975736666667     0.250006666667     0.0204978  
C35      C      0.024873333333     0.916536666667     0.211306666667    -0.0416876  
C36      C      0.022853333333     0.895146666667     0.194016666667    -0.0303463  
C37      C      0.001323333333     0.866676666667     0.197906666667     0.0103817  
C38      C      0.984313333333     0.881366666667     0.237026666667    -0.036988   
C39      C      0.982443333333     0.859916666667     0.219866666667    -0.0369128  
C40      C      0.968103333333     0.675806666667     0.024026666667    -0.0232439  
C41      C      0.946313333333     0.647396666667     0.024306666667    -0.0728146  
C42      C      0.930493333333     0.634626666667     0.000666666667     0.102606   
C43      C      0.937253333333     0.650636666667     0.976626666667    -0.0562579  
C44      C      0.959043333333     0.679046666667     0.976306666667    -0.0245066  
N1       N      0.987563333333     0.814576666667     0.326996666667    -0.13503    
N2       N      0.010993333333     0.850926666667     0.155486666667    -0.133987   
F1       F      0.925893333333     0.717666666667     0.354796666667    -0.458916   
F2       F      0.828633333333     0.522676666667     0.395196666667    -0.451141   
H1       H      0.004953333333     0.954476666667     0.315046666667     0.0471519  
H2       H      0.968793333333     0.893096666667     0.312926666667     0.0437447  
H3       H      0.051423333333     0.923946666667     0.276366666667     0.0445474  
H4       H      0.053273333333     0.882746666667     0.294576666667     0.0412209  
H5       H      0.970303333333     0.851636666667     0.330896666667     0.0501806  
H6       H      0.030703333333     0.836326666667     0.317696666667     0.0252653  
H7       H      0.942943333333     0.771626666667     0.350426666667     0.12567    
H8       H      0.021153333333     0.792986666667     0.308526666667     0.0661583  
H9       H      0.009913333333     0.743736666667     0.311466666667     0.0170182  
H10      H      0.956023333333     0.716146666667     0.036136666667     0.0456974  
H11      H      0.044643333333     0.774216666667     0.017346666667     0.0513299  
H12      H      0.047273333333     0.804446666667     0.055156666667     0.086104   
H13      H      0.958903333333     0.746546666667     0.073776666667     0.058653   
H14      H      0.984643333333     0.761926666667     0.119516666667     0.0183254  
H15      H      0.987933333333     0.792396666667     0.157466666667     0.0672022  
H16      H      0.029093333333     0.866176666667     0.105256666667     0.129448   
H17      H      0.981813333333     0.822296666667     0.183216666667     0.0263165  
H18      H      0.003343333333     0.954916666667     0.213296666667     0.0492639  
H19      H      0.041313333333     0.938396666667     0.207666666667     0.0446305  
H20      H      0.037843333333     0.900986666667     0.177346666667     0.0521124  
H21      H      0.968733333333     0.875826666667     0.253096666667     0.0454703  
H22      H      0.965633333333     0.838136666667     0.223216666667     0.042928   
H23      H      0.980333333333     0.684766666667     0.042466666667     0.0386879  
H24      H      0.941783333333     0.635356666667     0.043066666667     0.0544446  
H25      H      0.926143333333     0.640906666667     0.957836666667     0.0793927  
H26      H      0.964363333333     0.689966666667     0.956916666667     0.0430342  
C1       C      0.024433333333     0.026906666667     0.278886666667     0.0167116  
C2       C      0.045643333333     0.050256666667     0.292986666667    -0.0568541  
C3       C      0.066873333333     0.073536666667     0.278246666667    -0.000542561
C4       C      0.108743333333     0.096296666667     0.309426666667    -0.043251   
C5       C      0.088723333333     0.098596666667     0.293176666667     0.0135629  
C6       C      0.091443333333     0.125426666667     0.288816666667    -0.0383149  
C7       C      0.114903333333     0.149906666667     0.299176666667    -0.0371036  
C8       C      0.136063333333     0.147876666667     0.313766666667     0.00920863 
C9       C      0.132423333333     0.120816666667     0.319506666667    -0.0309496  
C10      C      0.162793333333     0.174146666667     0.320456666667     0.0263522  
C11      C      0.234343333333     0.192156666667     0.342316666667    -0.222291   
C12      C      0.213723333333     0.196826666667     0.330046666667     0.15871    
C13      C      0.221993333333     0.223836666667     0.318956666667    -0.130832   
C14      C      0.250403333333     0.245606666667     0.320216666667     0.0583112  
C15      C      0.271103333333     0.240846666667     0.332376666667    -0.151406   
C16      C      0.262803333333     0.213916666667     0.343626666667     0.380203   
C17      C      0.359283333333     0.307546666667     0.333026666667     0.00917311 
C18      C      0.265313333333     0.241756666667     0.040486666667    -0.0232451  
C19      C      0.258603333333     0.259386666667     0.024646666667     0.0119867  
C20      C      0.232473333333     0.258346666667     0.029826666667    -0.0200767  
C21      C      0.214913333333     0.242226666667     0.051246666667    -0.0532858  
C22      C      0.222353333333     0.225726666667     0.067576666667     0.104094   
C23      C      0.247653333333     0.225556666667     0.061926666667    -0.0686232  
C24      C      0.174023333333     0.191556666667     0.086646666667     0.38284    
C25      C      0.203653333333     0.208596666667     0.090326666667    -0.148667   
C26      C      0.215363333333     0.209476666667     0.116096666667     0.0590957  
C27      C      0.197843333333     0.193796666667     0.137836666667    -0.129508   
C28      C      0.168223333333     0.176756666667     0.134056666667     0.160838   
C29      C      0.156593333333     0.175996666667     0.108416666667    -0.220892   
C30      C      0.155833333333     0.153296666667     0.178576666667     0.027374   
C31      C      0.090113333333     0.095556666667     0.232756666667     0.0135495  
C32      C      0.066963333333     0.072856666667     0.249226666667     0.00172897 
C33      C      0.045263333333     0.049376666667     0.235346666667    -0.0587432  
C34      C      0.024263333333     0.026716666667     0.250006666667     0.0204765  
C35      C      0.083463333333     0.108336666667     0.211306666667    -0.0416852  
C36      C      0.104853333333     0.127706666667     0.194016666667    -0.0303575  
C37      C      0.133323333333     0.134646666667     0.197906666667     0.0104165  
C38      C      0.118633333333     0.102946666667     0.237026666667    -0.0369977  
C39      C      0.140083333333     0.122526666667     0.219866666667    -0.0369355  
C40      C      0.324193333333     0.292296666667     0.024026666667    -0.023249   
C41      C      0.352603333333     0.298916666667     0.024306666667    -0.0728138  
C42      C      0.365373333333     0.295866666667     0.000666666667     0.102604   
C43      C      0.349363333333     0.286616666667     0.976626666667    -0.0562575  
C44      C      0.320953333333     0.279996666667     0.976306666667    -0.024511   
N1       N      0.185423333333     0.172986666667     0.326996666667    -0.135034   
N2       N      0.149073333333     0.160066666667     0.155486666667    -0.133977   
F1       F      0.282333333333     0.208226666667     0.354796666667    -0.458915   
F2       F      0.477323333333     0.305956666667     0.395196666667    -0.451141   
H1       H      0.045523333333     0.050476666667     0.315046666667     0.0471494  
H2       H      0.106903333333     0.075696666667     0.312926666667     0.0437437  
H3       H      0.076053333333     0.127476666667     0.276366666667     0.0445462  
H4       H      0.117253333333     0.170526666667     0.294576666667     0.0412206  
H5       H      0.148363333333     0.118666666667     0.330896666667     0.0501801  
H6       H      0.163673333333     0.194376666667     0.317696666667     0.0252647  
H7       H      0.228373333333     0.171316666667     0.350426666667     0.125664   
H8       H      0.207013333333     0.228166666667     0.308526666667     0.0661484  
H9       H      0.256263333333     0.266176666667     0.311466666667     0.01704    
H10      H      0.283853333333     0.239876666667     0.036136666667     0.0457017  
H11      H      0.225783333333     0.270426666667     0.017346666667     0.0513329  
H12      H      0.195553333333     0.242826666667     0.055156666667     0.0861029  
H13      H      0.253453333333     0.212356666667     0.073776666667     0.0586524  
H14      H      0.238073333333     0.222716666667     0.119516666667     0.0183248  
H15      H      0.207603333333     0.195536666667     0.157466666667     0.0672019  
H16      H      0.133823333333     0.162916666667     0.105256666667     0.129448   
H17      H      0.177703333333     0.159516666667     0.183216666667     0.0263216  
H18      H      0.045083333333     0.048426666667     0.213296666667     0.0492611  
H19      H      0.061603333333     0.102916666667     0.207666666667     0.0446273  
H20      H      0.099013333333     0.136856666667     0.177346666667     0.0521149  
H21      H      0.124173333333     0.092906666667     0.253096666667     0.045469   
H22      H      0.161863333333     0.127496666667     0.223216666667     0.0429311  
H23      H      0.315233333333     0.295566666667     0.042466666667     0.0386848  
H24      H      0.364643333333     0.306426666667     0.043066666667     0.0544427  
H25      H      0.359093333333     0.285236666667     0.957836666667     0.0793909  
H26      H      0.310033333333     0.274396666667     0.956916666667     0.0430327  


